No_59-gen_results_new/Mpro_new_generate_500/2024-01-19-21-58-56/
  PyMOL2.3          3D                             0

 31 33  0  0  0  0  0  0  0  0999 V2000
   -9.1300   -2.9100    0.4520 O   0  0  0  0  0  0  0  0  0  0  0  0
  -10.2490   -2.6420    0.1800 C   0  0  0  0  0  0  0  0  0  0  0  0
  -11.3800   -3.0650    1.0860 C   0  0  0  0  0  0  0  0  0  0  0  0
  -11.2000   -3.8390    2.3880 C   0  0  0  0  0  0  0  0  0  0  0  0
  -10.9900   -5.0690    2.3420 N   0  0  0  0  0  0  0  0  0  0  0  0
  -12.7310   -2.7290    0.7330 N   0  0  0  0  0  0  0  0  0  0  0  0
  -12.9960   -1.9940   -0.4510 N   0  0  0  0  0  0  0  0  0  0  0  0
  -14.3580   -1.6940   -0.7530 C   0  0  0  0  0  0  0  0  0  0  0  0
  -15.0390   -0.7180   -0.0560 C   0  0  0  0  0  0  0  0  0  0  0  0
  -16.3510   -0.4690   -0.3980 C   0  0  0  0  0  0  0  0  0  0  0  0
  -16.9430   -1.2030   -1.4080 C   0  0  0  0  0  0  0  0  0  0  0  0
  -18.3840   -0.9560   -1.8060 C   0  0  0  0  0  0  0  0  0  0  0  0
  -16.2510   -2.1690   -2.1000 C   0  0  0  0  0  0  0  0  0  0  0  0
  -14.9490   -2.4160   -1.7590 C   0  0  0  0  0  0  0  0  0  0  0  0
  -11.9050   -1.5730   -1.3540 C   0  0  0  0  0  0  0  0  0  0  0  0
  -10.5280   -1.9050   -1.0240 N   0  0  0  0  0  0  0  0  0  0  0  0
   -9.4550   -1.4720   -1.9190 C   0  0  0  0  0  0  0  0  0  0  0  0
   -9.2820   -2.3940   -3.1270 C   0  0  0  0  0  0  0  0  0  0  0  0
   -7.8170   -2.5500   -3.5360 C   0  0  0  0  0  0  0  0  0  0  0  0
   -6.9720   -3.3210   -2.7550 C   0  0  0  0  0  0  0  0  0  0  0  0
   -5.6390   -3.4770   -3.1110 C   0  0  0  0  0  0  0  0  0  0  0  0
   -5.1940   -2.8390   -4.2640 C   0  0  0  0  0  0  0  0  0  0  0  0
   -6.0850   -2.0780   -5.0070 C   0  0  0  0  0  0  0  0  0  0  0  0
   -7.3470   -1.9600   -4.6270 N   0  0  0  0  0  0  0  0  0  0  0  0
  -12.1450   -0.9640   -2.3390 O   0  0  0  0  0  0  0  0  0  0  0  0
  -18.7610   -1.8760   -2.7390 F   0  0  0  0  0  0  0  0  0  0  0  0
  -18.4550    0.3250   -2.2750 F   0  0  0  0  0  0  0  0  0  0  0  0
  -19.1950   -1.1300   -0.7370 F   0  0  0  0  0  0  0  0  0  0  0  0
  -10.0899   -3.0088   -3.7244 O   0  0  0  0  0  0  0  0  0  0  0  0
  -16.7844   -3.0180   -3.1233 O   0  0  0  0  0  0  0  0  0  0  0  0
  -17.1277   -2.7877   -4.2706 C   0  0  0  0  0  0  0  0  0  0  0  0
  1  2  2  0  0  0  0
  2  3  1  0  0  0  0
  2 16  1  0  0  0  0
  3  4  1  0  0  0  0
  3  6  2  0  0  0  0
  4  5  1  0  0  0  0
  6  7  1  0  0  0  0
  7 15  1  0  0  0  0
  7  8  1  0  0  0  0
 11 12  1  0  0  0  0
 12 28  1  0  0  0  0
 12 27  1  0  0  0  0
 12 26  1  0  0  0  0
 15 16  1  0  0  0  0
 15 25  2  0  0  0  0
 16 17  1  0  0  0  0
 17 18  1  0  0  0  0
 18 19  1  0  0  0  0
 18 29  2  0  0  0  0
 13 30  1  0  0  0  0
 30 31  1  0  0  0  0
  8  9  2  0  0  0  0
  9 10  1  0  0  0  0
 10 11  2  0  0  0  0
 11 13  1  0  0  0  0
 13 14  2  0  0  0  0
  8 14  1  0  0  0  0
 19 20  2  0  0  0  0
 20 21  1  0  0  0  0
 21 22  2  0  0  0  0
 22 23  1  0  0  0  0
 23 24  2  0  0  0  0
 19 24  1  0  0  0  0
M  END
$$$$
