No_0-gen_results_new/Mpro_initial_molecule_p3/2024-06-19-20-31-25/
     RDKit          3D

 28 30  0  0  0  0  0  0  0  0999 V2000
  -10.3383   15.1532   67.5971 C   0  0  0  0  0  0  0  0  0  0  0  0
  -10.7220   15.1619   68.8301 N   0  0  0  0  0  0  0  0  0  0  0  0
  -10.4044   16.2024   69.6852 N   0  0  0  0  0  0  0  0  0  0  0  0
   -9.7271   17.3221   69.2607 C   0  0  0  0  0  0  0  0  0  0  0  0
   -9.3095   17.3212   67.9557 N   0  0  0  0  0  0  0  0  0  0  0  0
   -9.5450   16.2958   67.0814 C   0  0  0  0  0  0  0  0  0  0  0  0
  -10.8644   16.0907   71.0374 C   0  0  0  0  0  0  0  0  0  0  0  0
   -8.5330   18.4792   67.4604 C   0  0  0  0  0  0  0  0  0  0  0  0
   -9.5433   18.2987   69.9938 O   0  0  0  0  0  0  0  0  0  0  0  0
   -9.1481   16.2876   65.9124 O   0  0  0  0  0  0  0  0  0  0  0  0
  -10.7304   14.0247   66.8209 C   0  0  0  0  0  0  0  0  0  0  0  0
  -11.1003   13.0895   66.2465 N   0  0  0  0  0  0  0  0  0  0  0  0
   -7.0275   18.2876   67.7219 C   0  0  0  0  0  0  0  0  0  0  0  0
  -10.0126   16.3511   72.1395 C   0  0  0  0  0  0  0  0  0  0  0  0
  -10.4883   16.2212   73.4591 C   0  0  0  0  0  0  0  0  0  0  0  0
  -11.8103   15.8022   73.6966 C   0  0  0  0  0  0  0  0  0  0  0  0
  -12.6594   15.5153   72.6113 C   0  0  0  0  0  0  0  0  0  0  0  0
  -12.1896   15.6561   71.2886 C   0  0  0  0  0  0  0  0  0  0  0  0
  -12.3486   15.5799   75.3255 Cl  0  0  0  0  0  0  0  0  0  0  0  0
   -6.5344   17.3734   68.3696 C   0  0  0  0  0  0  0  0  0  0  0  0
   -5.2054   17.6254   68.8146 C   0  0  0  0  0  0  0  0  0  0  0  0
   -4.3973   18.3723   68.1960 C   0  0  0  0  0  0  0  0  0  0  0  0
   -4.9302   19.3250   67.3326 C   0  0  0  0  0  0  0  0  0  0  0  0
   -6.2849   19.2672   67.0141 C   0  0  0  0  0  0  0  0  0  0  0  0
   -6.9639   20.3436   66.1774 C   0  0  0  0  0  0  0  0  0  0  0  0
   -7.8781   20.1921   65.7287 O   0  0  0  0  0  0  0  0  0  0  0  0
   -6.1377   21.1635   65.6744 O   0  0  0  0  0  0  0  0  0  0  0  0
  -14.1201   14.9546   72.8042 C   0  0  0  0  0  0  0  0  0  0  0  0
  1  2  2  0
  1  6  1  0
  1 11  1  0
  2  3  1  0
  3  4  1  0
  3  7  1  0
  4  9  2  0
  4  5  1  0
  5  6  1  0
  5  8  1  0
  6 10  2  0
  8 13  1  0
 11 12  3  0
 16 19  1  0
 24 25  1  0
 25 26  2  0
 25 27  1  0
 17 28  1  0
 13 20  2  0
 20 21  1  0
 21 22  2  0
 22 23  1  0
 23 24  2  0
 24 13  1  0
  7 18  2  0
 18 17  1  0
 17 16  2  0
 16 15  1  0
 15 14  2  0
 14  7  1  0
M  END

$$$$
No_1-gen_results_new/Mpro_initial_molecule_p3/2024-06-19-20-31-25/
     RDKit          3D

 28 30  0  0  0  0  0  0  0  0999 V2000
  -10.3383   15.1532   67.5971 C   0  0  0  0  0  0  0  0  0  0  0  0
  -10.7220   15.1619   68.8301 N   0  0  0  0  0  0  0  0  0  0  0  0
  -10.4044   16.2024   69.6852 N   0  0  0  0  0  0  0  0  0  0  0  0
   -9.7271   17.3221   69.2607 C   0  0  0  0  0  0  0  0  0  0  0  0
   -9.3095   17.3212   67.9557 N   0  0  0  0  0  0  0  0  0  0  0  0
   -9.5450   16.2958   67.0814 C   0  0  0  0  0  0  0  0  0  0  0  0
  -10.8644   16.0907   71.0374 C   0  0  0  0  0  0  0  0  0  0  0  0
   -8.5330   18.4792   67.4604 C   0  0  0  0  0  0  0  0  0  0  0  0
   -9.5433   18.2987   69.9938 O   0  0  0  0  0  0  0  0  0  0  0  0
   -9.1481   16.2876   65.9124 O   0  0  0  0  0  0  0  0  0  0  0  0
  -10.7304   14.0247   66.8209 C   0  0  0  0  0  0  0  0  0  0  0  0
  -11.1003   13.0895   66.2465 N   0  0  0  0  0  0  0  0  0  0  0  0
   -7.0275   18.2876   67.7219 C   0  0  0  0  0  0  0  0  0  0  0  0
  -10.0126   16.3511   72.1395 C   0  0  0  0  0  0  0  0  0  0  0  0
  -10.4883   16.2212   73.4591 C   0  0  0  0  0  0  0  0  0  0  0  0
  -11.8103   15.8022   73.6966 C   0  0  0  0  0  0  0  0  0  0  0  0
  -12.6594   15.5153   72.6113 C   0  0  0  0  0  0  0  0  0  0  0  0
  -12.1896   15.6561   71.2886 C   0  0  0  0  0  0  0  0  0  0  0  0
  -12.2768   15.6000   75.1088 C   0  0  0  0  0  0  0  0  0  0  0  0
   -6.3059   19.3590   66.9154 C   0  0  0  0  0  0  0  0  0  0  0  0
   -4.9893   19.4432   66.9685 C   0  0  0  0  0  0  0  0  0  0  0  0
   -4.2885   20.4305   66.2887 C   0  0  0  0  0  0  0  0  0  0  0  0
   -4.9684   21.5145   65.8586 C   0  0  0  0  0  0  0  0  0  0  0  0
   -6.3744   21.4842   65.8345 C   0  0  0  0  0  0  0  0  0  0  0  0
   -7.0549   20.4513   66.4027 C   0  0  0  0  0  0  0  0  0  0  0  0
  -12.5809   16.5952   75.6959 O   0  0  0  0  0  0  0  0  0  0  0  0
  -12.1193   14.5201   75.6002 O   0  0  0  0  0  0  0  0  0  0  0  0
   -4.2057   22.5471   65.2374 O   0  0  0  0  0  0  0  0  0  0  0  0
  1  2  2  0
  1  6  1  0
  1 11  1  0
  2  3  1  0
  3  4  1  0
  3  7  1  0
  4  9  2  0
  4  5  1  0
  5  6  1  0
  5  8  1  0
  6 10  2  0
  8 13  1  0
 11 12  3  0
 16 19  1  0
 13 20  1  0
 19 26  2  0
 19 27  1  0
 23 28  1  0
 20 21  2  0
 21 22  1  0
 22 23  2  0
 23 24  1  0
 24 25  2  0
 25 20  1  0
  7 18  2  0
 18 17  1  0
 17 16  2  0
 16 15  1  0
 15 14  2  0
 14  7  1  0
M  END

$$$$
No_2-gen_results_new/Mpro_initial_molecule_p3/2024-06-19-20-31-25/
     RDKit          3D

 28 30  0  0  0  0  0  0  0  0999 V2000
  -10.3383   15.1532   67.5971 C   0  0  0  0  0  0  0  0  0  0  0  0
  -10.7220   15.1619   68.8301 N   0  0  0  0  0  0  0  0  0  0  0  0
  -10.4044   16.2024   69.6852 N   0  0  0  0  0  0  0  0  0  0  0  0
   -9.7271   17.3221   69.2607 C   0  0  0  0  0  0  0  0  0  0  0  0
   -9.3095   17.3212   67.9557 N   0  0  0  0  0  0  0  0  0  0  0  0
   -9.5450   16.2958   67.0814 C   0  0  0  0  0  0  0  0  0  0  0  0
  -10.8644   16.0907   71.0374 C   0  0  0  0  0  0  0  0  0  0  0  0
   -8.5330   18.4792   67.4604 C   0  0  0  0  0  0  0  0  0  0  0  0
   -9.5433   18.2987   69.9938 O   0  0  0  0  0  0  0  0  0  0  0  0
   -9.1481   16.2876   65.9124 O   0  0  0  0  0  0  0  0  0  0  0  0
  -10.7304   14.0247   66.8209 C   0  0  0  0  0  0  0  0  0  0  0  0
  -11.1003   13.0895   66.2465 N   0  0  0  0  0  0  0  0  0  0  0  0
   -7.0275   18.2876   67.7219 C   0  0  0  0  0  0  0  0  0  0  0  0
  -10.0126   16.3511   72.1395 C   0  0  0  0  0  0  0  0  0  0  0  0
  -10.4883   16.2212   73.4591 C   0  0  0  0  0  0  0  0  0  0  0  0
  -11.8103   15.8022   73.6966 C   0  0  0  0  0  0  0  0  0  0  0  0
  -12.6594   15.5153   72.6113 C   0  0  0  0  0  0  0  0  0  0  0  0
  -12.1896   15.6561   71.2886 C   0  0  0  0  0  0  0  0  0  0  0  0
  -12.3486   15.5799   75.3255 Cl  0  0  0  0  0  0  0  0  0  0  0  0
   -6.5558   17.2018   67.9045 O   0  0  0  0  0  0  0  0  0  0  0  0
   -6.4130   19.3147   68.0692 N   0  0  0  0  0  0  0  0  0  0  0  0
   -4.9880   19.3264   68.2155 C   0  0  0  0  0  0  0  0  0  0  0  0
   -4.6408   19.3966   69.5241 C   0  0  0  0  0  0  0  0  0  0  0  0
   -3.1852   19.5131   69.8121 C   0  0  0  0  0  0  0  0  0  0  0  0
   -2.3384   19.7216   68.7688 C   0  0  0  0  0  0  0  0  0  0  0  0
   -2.7730   19.5597   67.4614 C   0  0  0  0  0  0  0  0  0  0  0  0
   -4.1214   19.5041   67.2003 C   0  0  0  0  0  0  0  0  0  0  0  0
   -5.5041   19.3130   70.5763 O   0  0  0  0  0  0  0  0  0  0  0  0
  1  2  2  0
  1  6  1  0
  1 11  1  0
  2  3  1  0
  3  4  1  0
  3  7  1  0
  4  9  2  0
  4  5  1  0
  5  6  1  0
  5  8  1  0
  6 10  2  0
  8 13  1  0
 11 12  3  0
 16 19  1  0
 13 20  2  0
 13 21  1  0
 21 22  1  0
 23 28  1  0
 22 23  2  0
 23 24  1  0
 24 25  2  0
 25 26  1  0
 26 27  2  0
 27 22  1  0
  7 18  2  0
 18 17  1  0
 17 16  2  0
 16 15  1  0
 15 14  2  0
 14  7  1  0
M  END

$$$$
No_3-gen_results_new/Mpro_initial_molecule_p3/2024-06-19-20-31-25/
     RDKit          3D

 28 30  0  0  0  0  0  0  0  0999 V2000
  -10.3383   15.1532   67.5971 C   0  0  0  0  0  0  0  0  0  0  0  0
  -10.7220   15.1619   68.8301 N   0  0  0  0  0  0  0  0  0  0  0  0
  -10.4044   16.2024   69.6852 N   0  0  0  0  0  0  0  0  0  0  0  0
   -9.7271   17.3221   69.2607 C   0  0  0  0  0  0  0  0  0  0  0  0
   -9.3095   17.3212   67.9557 N   0  0  0  0  0  0  0  0  0  0  0  0
   -9.5450   16.2958   67.0814 C   0  0  0  0  0  0  0  0  0  0  0  0
  -10.8644   16.0907   71.0374 C   0  0  0  0  0  0  0  0  0  0  0  0
   -8.5330   18.4792   67.4604 C   0  0  0  0  0  0  0  0  0  0  0  0
   -9.5433   18.2987   69.9938 O   0  0  0  0  0  0  0  0  0  0  0  0
   -9.1481   16.2876   65.9124 O   0  0  0  0  0  0  0  0  0  0  0  0
  -10.7304   14.0247   66.8209 C   0  0  0  0  0  0  0  0  0  0  0  0
  -11.1003   13.0895   66.2465 N   0  0  0  0  0  0  0  0  0  0  0  0
   -7.0275   18.2876   67.7219 C   0  0  0  0  0  0  0  0  0  0  0  0
  -10.0126   16.3511   72.1395 C   0  0  0  0  0  0  0  0  0  0  0  0
  -10.4883   16.2212   73.4591 C   0  0  0  0  0  0  0  0  0  0  0  0
  -11.8103   15.8022   73.6966 C   0  0  0  0  0  0  0  0  0  0  0  0
  -12.6594   15.5153   72.6113 C   0  0  0  0  0  0  0  0  0  0  0  0
  -12.1896   15.6561   71.2886 C   0  0  0  0  0  0  0  0  0  0  0  0
  -12.2484   15.6088   75.0145 O   0  0  0  0  0  0  0  0  0  0  0  0
   -6.4522   19.3083   67.8828 C   0  0  0  0  0  0  0  0  0  0  0  0
   -6.2560   20.3853   67.0148 C   0  0  0  0  0  0  0  0  0  0  0  0
   -7.6349   20.5655   66.3051 C   0  0  0  0  0  0  0  0  0  0  0  0
   -8.6306   19.6386   66.3558 C   0  0  0  0  0  0  0  0  0  0  0  0
   -5.2700   21.3249   66.7405 C   0  0  0  0  0  0  0  0  0  0  0  0
   -4.3272   21.3072   67.5692 O   0  0  0  0  0  0  0  0  0  0  0  0
   -5.3083   22.0584   65.7304 O   0  0  0  0  0  0  0  0  0  0  0  0
   -9.9672   19.6792   65.9236 N   0  0  0  0  0  0  0  0  0  0  0  0
  -12.3386   16.7918   75.7223 C   0  0  0  0  0  0  0  0  0  0  0  0
  1  2  2  0
  1  6  1  0
  1 11  1  0
  2  3  1  0
  3  4  1  0
  3  7  1  0
  4  9  2  0
  4  5  1  0
  5  6  1  0
  5  8  1  0
  6 10  2  0
 11 12  3  0
 16 19  1  0
 21 24  1  0
 24 25  2  0
 24 26  1  0
 23 27  1  0
 19 28  1  0
  8 13  2  0
 13 20  1  0
 20 21  2  0
 21 22  1  0
 22 23  2  0
 23  8  1  0
  7 18  2  0
 18 17  1  0
 17 16  2  0
 16 15  1  0
 15 14  2  0
 14  7  1  0
M  END

$$$$
No_4-gen_results_new/Mpro_initial_molecule_p3/2024-06-19-20-31-25/
     RDKit          3D

 28 30  0  0  0  0  0  0  0  0999 V2000
  -10.3383   15.1532   67.5971 C   0  0  0  0  0  0  0  0  0  0  0  0
  -10.7220   15.1619   68.8301 N   0  0  0  0  0  0  0  0  0  0  0  0
  -10.4044   16.2024   69.6852 N   0  0  0  0  0  0  0  0  0  0  0  0
   -9.7271   17.3221   69.2607 C   0  0  0  0  0  0  0  0  0  0  0  0
   -9.3095   17.3212   67.9557 N   0  0  0  0  0  0  0  0  0  0  0  0
   -9.5450   16.2958   67.0814 C   0  0  0  0  0  0  0  0  0  0  0  0
  -10.8644   16.0907   71.0374 C   0  0  0  0  0  0  0  0  0  0  0  0
   -8.5330   18.4792   67.4604 C   0  0  0  0  0  0  0  0  0  0  0  0
   -9.5433   18.2987   69.9938 O   0  0  0  0  0  0  0  0  0  0  0  0
   -9.1481   16.2876   65.9124 O   0  0  0  0  0  0  0  0  0  0  0  0
  -10.7304   14.0247   66.8209 C   0  0  0  0  0  0  0  0  0  0  0  0
  -11.1003   13.0895   66.2465 N   0  0  0  0  0  0  0  0  0  0  0  0
   -7.0275   18.2876   67.7219 C   0  0  0  0  0  0  0  0  0  0  0  0
  -10.0126   16.3511   72.1395 C   0  0  0  0  0  0  0  0  0  0  0  0
  -10.4883   16.2212   73.4591 C   0  0  0  0  0  0  0  0  0  0  0  0
  -11.8103   15.8022   73.6966 C   0  0  0  0  0  0  0  0  0  0  0  0
  -12.6594   15.5153   72.6113 C   0  0  0  0  0  0  0  0  0  0  0  0
  -12.1896   15.6561   71.2886 C   0  0  0  0  0  0  0  0  0  0  0  0
  -12.2768   15.6000   75.1088 C   0  0  0  0  0  0  0  0  0  0  0  0
   -6.4522   19.3092   67.8826 C   0  0  0  0  0  0  0  0  0  0  0  0
  -12.3537   14.5923   75.5994 O   0  0  0  0  0  0  0  0  0  0  0  0
  -12.8117   16.6654   75.6562 O   0  0  0  0  0  0  0  0  0  0  0  0
   -6.1044   19.5214   69.0722 C   0  0  0  0  0  0  0  0  0  0  0  0
   -4.9561   20.3757   69.5032 C   0  0  0  0  0  0  0  0  0  0  0  0
   -4.1448   20.9035   68.4735 C   0  0  0  0  0  0  0  0  0  0  0  0
   -4.2616   20.4672   67.1586 C   0  0  0  0  0  0  0  0  0  0  0  0
   -5.4161   19.6789   66.8342 C   0  0  0  0  0  0  0  0  0  0  0  0
   -3.4063   21.1308   65.8778 Cl  0  0  0  0  0  0  0  0  0  0  0  0
  1  2  2  0
  1  6  1  0
  1 11  1  0
  2  3  1  0
  3  4  1  0
  3  7  1  0
  4  9  2  0
  4  5  1  0
  5  6  1  0
  5  8  1  0
  6 10  2  0
  8 13  1  0
 11 12  3  0
 16 19  1  0
 13 20  1  0
 19 21  2  0
 19 22  1  0
 26 28  1  0
 20 23  2  0
 23 24  1  0
 24 25  2  0
 25 26  1  0
 26 27  2  0
 27 20  1  0
  7 18  2  0
 18 17  1  0
 17 16  2  0
 16 15  1  0
 15 14  2  0
 14  7  1  0
M  END

$$$$
No_5-gen_results_new/Mpro_initial_molecule_p3/2024-06-19-20-31-25/
     RDKit          3D

 28 30  0  0  0  0  0  0  0  0999 V2000
  -10.3383   15.1532   67.5971 C   0  0  0  0  0  0  0  0  0  0  0  0
  -10.7220   15.1619   68.8301 N   0  0  0  0  0  0  0  0  0  0  0  0
  -10.4044   16.2024   69.6852 N   0  0  0  0  0  0  0  0  0  0  0  0
   -9.7271   17.3221   69.2607 C   0  0  0  0  0  0  0  0  0  0  0  0
   -9.3095   17.3212   67.9557 N   0  0  0  0  0  0  0  0  0  0  0  0
   -9.5450   16.2958   67.0814 C   0  0  0  0  0  0  0  0  0  0  0  0
  -10.8644   16.0907   71.0374 C   0  0  0  0  0  0  0  0  0  0  0  0
   -8.5330   18.4792   67.4604 C   0  0  0  0  0  0  0  0  0  0  0  0
   -9.5433   18.2987   69.9938 O   0  0  0  0  0  0  0  0  0  0  0  0
   -9.1481   16.2876   65.9124 O   0  0  0  0  0  0  0  0  0  0  0  0
  -10.7304   14.0247   66.8209 C   0  0  0  0  0  0  0  0  0  0  0  0
  -11.1003   13.0895   66.2465 N   0  0  0  0  0  0  0  0  0  0  0  0
   -7.0275   18.2876   67.7219 C   0  0  0  0  0  0  0  0  0  0  0  0
  -10.0126   16.3511   72.1395 C   0  0  0  0  0  0  0  0  0  0  0  0
  -10.4883   16.2212   73.4591 C   0  0  0  0  0  0  0  0  0  0  0  0
  -11.8103   15.8022   73.6966 C   0  0  0  0  0  0  0  0  0  0  0  0
  -12.6594   15.5153   72.6113 C   0  0  0  0  0  0  0  0  0  0  0  0
  -12.1896   15.6561   71.2886 C   0  0  0  0  0  0  0  0  0  0  0  0
  -12.2768   15.6000   75.1088 C   0  0  0  0  0  0  0  0  0  0  0  0
   -6.3059   19.3590   66.9154 C   0  0  0  0  0  0  0  0  0  0  0  0
   -4.9893   19.4432   66.9685 C   0  0  0  0  0  0  0  0  0  0  0  0
   -4.2885   20.4305   66.2887 C   0  0  0  0  0  0  0  0  0  0  0  0
   -4.9684   21.5145   65.8586 C   0  0  0  0  0  0  0  0  0  0  0  0
   -6.3360   21.4886   65.8471 N   0  0  0  0  0  0  0  0  0  0  0  0
   -7.0197   20.4702   66.3828 C   0  0  0  0  0  0  0  0  0  0  0  0
  -12.5809   16.5952   75.6959 O   0  0  0  0  0  0  0  0  0  0  0  0
   -4.2696   22.5449   65.2454 N   0  0  0  0  0  0  0  0  0  0  0  0
  -12.1193   14.5201   75.6002 O   0  0  0  0  0  0  0  0  0  0  0  0
  1  2  2  0
  1  6  1  0
  1 11  1  0
  2  3  1  0
  3  4  1  0
  3  7  1  0
  4  9  2  0
  4  5  1  0
  5  6  1  0
  5  8  1  0
  6 10  2  0
  8 13  1  0
 11 12  3  0
 16 19  1  0
 13 20  1  0
 19 26  2  0
 23 27  1  0
 19 28  1  0
 20 21  2  0
 21 22  1  0
 22 23  2  0
 23 24  1  0
 24 25  2  0
 25 20  1  0
  7 18  2  0
 18 17  1  0
 17 16  2  0
 16 15  1  0
 15 14  2  0
 14  7  1  0
M  END

$$$$
No_6-gen_results_new/Mpro_initial_molecule_p3/2024-06-19-20-31-25/
     RDKit          3D

 28 30  0  0  0  0  0  0  0  0999 V2000
  -10.3383   15.1532   67.5971 C   0  0  0  0  0  0  0  0  0  0  0  0
  -10.7220   15.1619   68.8301 N   0  0  0  0  0  0  0  0  0  0  0  0
  -10.4044   16.2024   69.6852 N   0  0  0  0  0  0  0  0  0  0  0  0
   -9.7271   17.3221   69.2607 C   0  0  0  0  0  0  0  0  0  0  0  0
   -9.3095   17.3212   67.9557 N   0  0  0  0  0  0  0  0  0  0  0  0
   -9.5450   16.2958   67.0814 C   0  0  0  0  0  0  0  0  0  0  0  0
  -10.8644   16.0907   71.0374 C   0  0  0  0  0  0  0  0  0  0  0  0
   -8.5330   18.4792   67.4604 C   0  0  0  0  0  0  0  0  0  0  0  0
   -9.5433   18.2987   69.9938 O   0  0  0  0  0  0  0  0  0  0  0  0
   -9.1481   16.2876   65.9124 O   0  0  0  0  0  0  0  0  0  0  0  0
  -10.7304   14.0247   66.8209 C   0  0  0  0  0  0  0  0  0  0  0  0
  -11.1003   13.0895   66.2465 N   0  0  0  0  0  0  0  0  0  0  0  0
   -7.0275   18.2876   67.7219 C   0  0  0  0  0  0  0  0  0  0  0  0
  -10.0126   16.3511   72.1395 C   0  0  0  0  0  0  0  0  0  0  0  0
  -10.4883   16.2212   73.4591 C   0  0  0  0  0  0  0  0  0  0  0  0
  -11.8103   15.8022   73.6966 C   0  0  0  0  0  0  0  0  0  0  0  0
  -12.6594   15.5153   72.6113 C   0  0  0  0  0  0  0  0  0  0  0  0
  -12.1896   15.6561   71.2886 C   0  0  0  0  0  0  0  0  0  0  0  0
  -12.3486   15.5799   75.3255 Cl  0  0  0  0  0  0  0  0  0  0  0  0
   -6.5558   17.2018   67.9045 O   0  0  0  0  0  0  0  0  0  0  0  0
   -6.4130   19.3147   68.0692 N   0  0  0  0  0  0  0  0  0  0  0  0
   -4.9880   19.3264   68.2155 C   0  0  0  0  0  0  0  0  0  0  0  0
   -4.6408   19.3966   69.5241 C   0  0  0  0  0  0  0  0  0  0  0  0
   -5.4086   19.2925   70.7699 C   0  0  0  0  0  0  0  0  0  0  0  0
   -4.8443   19.3628   72.0087 C   0  0  0  0  0  0  0  0  0  0  0  0
   -3.5986   19.7764   72.2195 C   0  0  0  0  0  0  0  0  0  0  0  0
   -3.3303   19.9399   69.9053 C   0  0  0  0  0  0  0  0  0  0  0  0
   -2.9297   20.2418   71.3558 C   0  0  0  0  0  0  0  0  0  0  0  0
  1  2  2  0
  1  6  1  0
  1 11  1  0
  2  3  1  0
  3  4  1  0
  3  7  1  0
  4  9  2  0
  4  5  1  0
  5  6  1  0
  5  8  1  0
  6 10  2  0
  8 13  1  0
 11 12  3  0
 16 19  1  0
 13 20  2  0
 13 21  1  0
 21 22  1  0
 22 23  1  0
 23 24  2  0
 24 25  1  0
 25 26  2  0
 26 28  1  0
 28 27  2  0
 27 23  1  0
  7 18  2  0
 18 17  1  0
 17 16  2  0
 16 15  1  0
 15 14  2  0
 14  7  1  0
M  END

$$$$
No_7-gen_results_new/Mpro_initial_molecule_p3/2024-06-19-20-31-25/
     RDKit          3D

 28 30  0  0  0  0  0  0  0  0999 V2000
  -10.3383   15.1532   67.5971 C   0  0  0  0  0  0  0  0  0  0  0  0
  -10.7220   15.1619   68.8301 N   0  0  0  0  0  0  0  0  0  0  0  0
  -10.4044   16.2024   69.6852 N   0  0  0  0  0  0  0  0  0  0  0  0
   -9.7271   17.3221   69.2607 C   0  0  0  0  0  0  0  0  0  0  0  0
   -9.3095   17.3212   67.9557 N   0  0  0  0  0  0  0  0  0  0  0  0
   -9.5450   16.2958   67.0814 C   0  0  0  0  0  0  0  0  0  0  0  0
  -10.8644   16.0907   71.0374 C   0  0  0  0  0  0  0  0  0  0  0  0
   -8.5330   18.4792   67.4604 C   0  0  0  0  0  0  0  0  0  0  0  0
   -9.5433   18.2987   69.9938 O   0  0  0  0  0  0  0  0  0  0  0  0
   -9.1481   16.2876   65.9124 O   0  0  0  0  0  0  0  0  0  0  0  0
  -10.7304   14.0247   66.8209 C   0  0  0  0  0  0  0  0  0  0  0  0
  -11.1003   13.0895   66.2465 N   0  0  0  0  0  0  0  0  0  0  0  0
   -7.0275   18.2876   67.7219 C   0  0  0  0  0  0  0  0  0  0  0  0
  -10.0126   16.3511   72.1395 C   0  0  0  0  0  0  0  0  0  0  0  0
  -10.4883   16.2212   73.4591 C   0  0  0  0  0  0  0  0  0  0  0  0
  -11.8103   15.8022   73.6966 C   0  0  0  0  0  0  0  0  0  0  0  0
  -12.6594   15.5153   72.6113 C   0  0  0  0  0  0  0  0  0  0  0  0
  -12.1896   15.6561   71.2886 C   0  0  0  0  0  0  0  0  0  0  0  0
  -12.2768   15.6000   75.1088 C   0  0  0  0  0  0  0  0  0  0  0  0
   -6.3059   19.3590   66.9154 C   0  0  0  0  0  0  0  0  0  0  0  0
   -4.9259   19.3482   66.9559 C   0  0  0  0  0  0  0  0  0  0  0  0
   -4.2806   18.1589   67.5992 C   0  0  0  0  0  0  0  0  0  0  0  0
   -5.0624   17.1663   68.2345 C   0  0  0  0  0  0  0  0  0  0  0  0
   -6.4891   17.1761   68.1404 C   0  0  0  0  0  0  0  0  0  0  0  0
  -12.3521   14.5925   75.5998 O   0  0  0  0  0  0  0  0  0  0  0  0
  -12.2297   16.6683   75.8377 O   0  0  0  0  0  0  0  0  0  0  0  0
   -4.0074   20.4801   66.2600 Cl  0  0  0  0  0  0  0  0  0  0  0  0
  -13.9753   15.0047   72.8291 O   0  0  0  0  0  0  0  0  0  0  0  0
  1  2  2  0
  1  6  1  0
  1 11  1  0
  2  3  1  0
  3  4  1  0
  3  7  1  0
  4  9  2  0
  4  5  1  0
  5  6  1  0
  5  8  1  0
  6 10  2  0
  8 13  1  0
 11 12  3  0
 16 19  1  0
 19 25  2  0
 19 26  1  0
 21 27  1  0
 17 28  1  0
 13 20  2  0
 20 21  1  0
 21 22  2  0
 22 23  1  0
 23 24  2  0
 24 13  1  0
  7 18  2  0
 18 17  1  0
 17 16  2  0
 16 15  1  0
 15 14  2  0
 14  7  1  0
M  END

$$$$
No_8-gen_results_new/Mpro_initial_molecule_p3/2024-06-19-20-31-25/
     RDKit          3D

 28 30  0  0  0  0  0  0  0  0999 V2000
  -10.3383   15.1532   67.5971 C   0  0  0  0  0  0  0  0  0  0  0  0
  -10.7220   15.1619   68.8301 N   0  0  0  0  0  0  0  0  0  0  0  0
  -10.4044   16.2024   69.6852 N   0  0  0  0  0  0  0  0  0  0  0  0
   -9.7271   17.3221   69.2607 C   0  0  0  0  0  0  0  0  0  0  0  0
   -9.3095   17.3212   67.9557 N   0  0  0  0  0  0  0  0  0  0  0  0
   -9.5450   16.2958   67.0814 C   0  0  0  0  0  0  0  0  0  0  0  0
  -10.8644   16.0907   71.0374 C   0  0  0  0  0  0  0  0  0  0  0  0
   -8.5330   18.4792   67.4604 C   0  0  0  0  0  0  0  0  0  0  0  0
   -9.5433   18.2987   69.9938 O   0  0  0  0  0  0  0  0  0  0  0  0
   -9.1481   16.2876   65.9124 O   0  0  0  0  0  0  0  0  0  0  0  0
  -10.7304   14.0247   66.8209 C   0  0  0  0  0  0  0  0  0  0  0  0
  -11.1003   13.0895   66.2465 N   0  0  0  0  0  0  0  0  0  0  0  0
   -7.0275   18.2876   67.7219 C   0  0  0  0  0  0  0  0  0  0  0  0
  -10.0126   16.3511   72.1395 C   0  0  0  0  0  0  0  0  0  0  0  0
  -10.4883   16.2212   73.4591 C   0  0  0  0  0  0  0  0  0  0  0  0
  -11.8103   15.8022   73.6966 C   0  0  0  0  0  0  0  0  0  0  0  0
  -12.6594   15.5153   72.6113 C   0  0  0  0  0  0  0  0  0  0  0  0
  -12.1896   15.6561   71.2886 C   0  0  0  0  0  0  0  0  0  0  0  0
  -12.2768   15.6000   75.1088 C   0  0  0  0  0  0  0  0  0  0  0  0
   -6.4522   19.3092   67.8826 C   0  0  0  0  0  0  0  0  0  0  0  0
  -11.9582   16.3232   75.9332 O   0  0  0  0  0  0  0  0  0  0  0  0
   -6.3602   20.4039   67.0238 C   0  0  0  0  0  0  0  0  0  0  0  0
   -7.7584   20.6401   66.4547 C   0  0  0  0  0  0  0  0  0  0  0  0
   -8.8354   19.6720   66.6603 C   0  0  0  0  0  0  0  0  0  0  0  0
   -5.4947   21.3455   66.8162 O   0  0  0  0  0  0  0  0  0  0  0  0
  -12.7883   14.4784   75.3680 O   0  0  0  0  0  0  0  0  0  0  0  0
   -4.9672   19.1087   68.2684 O   0  0  0  0  0  0  0  0  0  0  0  0
   -4.5744   19.3268   69.5203 C   0  0  0  0  0  0  0  0  0  0  0  0
  1  2  2  0
  1  6  1  0
  1 11  1  0
  2  3  1  0
  3  4  1  0
  3  7  1  0
  4  9  2  0
  4  5  1  0
  5  6  1  0
  5  8  1  0
  6 10  2  0
 11 12  3  0
 16 19  1  0
 19 21  2  0
 22 25  1  0
 19 26  1  0
 20 27  1  0
 27 28  1  0
  8 13  2  0
 13 20  1  0
 20 22  2  0
 22 23  1  0
 23 24  2  0
 24  8  1  0
  7 18  2  0
 18 17  1  0
 17 16  2  0
 16 15  1  0
 15 14  2  0
 14  7  1  0
M  END

$$$$
No_9-gen_results_new/Mpro_initial_molecule_p3/2024-06-19-20-31-25/
     RDKit          3D

 28 30  0  0  0  0  0  0  0  0999 V2000
  -10.3383   15.1532   67.5971 C   0  0  0  0  0  0  0  0  0  0  0  0
  -10.7220   15.1619   68.8301 N   0  0  0  0  0  0  0  0  0  0  0  0
  -10.4044   16.2024   69.6852 N   0  0  0  0  0  0  0  0  0  0  0  0
   -9.7271   17.3221   69.2607 C   0  0  0  0  0  0  0  0  0  0  0  0
   -9.3095   17.3212   67.9557 N   0  0  0  0  0  0  0  0  0  0  0  0
   -9.5450   16.2958   67.0814 C   0  0  0  0  0  0  0  0  0  0  0  0
  -10.8644   16.0907   71.0374 C   0  0  0  0  0  0  0  0  0  0  0  0
   -8.5330   18.4792   67.4604 C   0  0  0  0  0  0  0  0  0  0  0  0
   -9.5433   18.2987   69.9938 O   0  0  0  0  0  0  0  0  0  0  0  0
   -9.1481   16.2876   65.9124 O   0  0  0  0  0  0  0  0  0  0  0  0
  -10.7304   14.0247   66.8209 C   0  0  0  0  0  0  0  0  0  0  0  0
  -11.1003   13.0895   66.2465 N   0  0  0  0  0  0  0  0  0  0  0  0
   -7.0275   18.2876   67.7219 C   0  0  0  0  0  0  0  0  0  0  0  0
  -10.0126   16.3511   72.1395 C   0  0  0  0  0  0  0  0  0  0  0  0
  -10.4883   16.2212   73.4591 C   0  0  0  0  0  0  0  0  0  0  0  0
  -11.8103   15.8022   73.6966 C   0  0  0  0  0  0  0  0  0  0  0  0
  -12.6594   15.5153   72.6113 C   0  0  0  0  0  0  0  0  0  0  0  0
  -12.1896   15.6561   71.2886 C   0  0  0  0  0  0  0  0  0  0  0  0
  -12.2768   15.6000   75.1088 C   0  0  0  0  0  0  0  0  0  0  0  0
   -6.5341   17.3729   68.3685 C   0  0  0  0  0  0  0  0  0  0  0  0
   -5.1249   17.1827   68.5818 C   0  0  0  0  0  0  0  0  0  0  0  0
   -4.4393   18.0516   67.8378 C   0  0  0  0  0  0  0  0  0  0  0  0
   -4.8689   19.0478   67.0695 C   0  0  0  0  0  0  0  0  0  0  0  0
   -6.2627   19.1643   66.9261 C   0  0  0  0  0  0  0  0  0  0  0  0
  -12.3528   14.5927   75.5996 O   0  0  0  0  0  0  0  0  0  0  0  0
  -12.8086   16.7350   75.7017 N   0  0  0  0  0  0  0  0  0  0  0  0
  -13.9711   15.0201   72.8168 O   0  0  0  0  0  0  0  0  0  0  0  0
   -3.8700   20.1377   66.2123 Cl  0  0  0  0  0  0  0  0  0  0  0  0
  1  2  2  0
  1  6  1  0
  1 11  1  0
  2  3  1  0
  3  4  1  0
  3  7  1  0
  4  9  2  0
  4  5  1  0
  5  6  1  0
  5  8  1  0
  6 10  2  0
  8 13  1  0
 11 12  3  0
 16 19  1  0
 19 25  2  0
 19 26  1  0
 17 27  1  0
 23 28  1  0
 13 20  2  0
 20 21  1  0
 21 22  2  0
 22 23  1  0
 23 24  2  0
 24 13  1  0
  7 18  2  0
 18 17  1  0
 17 16  2  0
 16 15  1  0
 15 14  2  0
 14  7  1  0
M  END

$$$$
No_10-gen_results_new/Mpro_initial_molecule_p3/2024-06-19-20-31-25/
     RDKit          3D

 28 30  0  0  0  0  0  0  0  0999 V2000
  -10.3383   15.1532   67.5971 C   0  0  0  0  0  0  0  0  0  0  0  0
  -10.7220   15.1619   68.8301 N   0  0  0  0  0  0  0  0  0  0  0  0
  -10.4044   16.2024   69.6852 N   0  0  0  0  0  0  0  0  0  0  0  0
   -9.7271   17.3221   69.2607 C   0  0  0  0  0  0  0  0  0  0  0  0
   -9.3095   17.3212   67.9557 N   0  0  0  0  0  0  0  0  0  0  0  0
   -9.5450   16.2958   67.0814 C   0  0  0  0  0  0  0  0  0  0  0  0
  -10.8644   16.0907   71.0374 C   0  0  0  0  0  0  0  0  0  0  0  0
   -8.5330   18.4792   67.4604 C   0  0  0  0  0  0  0  0  0  0  0  0
   -9.5433   18.2987   69.9938 O   0  0  0  0  0  0  0  0  0  0  0  0
   -9.1481   16.2876   65.9124 O   0  0  0  0  0  0  0  0  0  0  0  0
  -10.7304   14.0247   66.8209 C   0  0  0  0  0  0  0  0  0  0  0  0
  -11.1003   13.0895   66.2465 N   0  0  0  0  0  0  0  0  0  0  0  0
   -7.0275   18.2876   67.7219 C   0  0  0  0  0  0  0  0  0  0  0  0
  -10.0126   16.3511   72.1395 C   0  0  0  0  0  0  0  0  0  0  0  0
  -10.4883   16.2212   73.4591 C   0  0  0  0  0  0  0  0  0  0  0  0
  -11.8103   15.8022   73.6966 C   0  0  0  0  0  0  0  0  0  0  0  0
  -12.6594   15.5153   72.6113 C   0  0  0  0  0  0  0  0  0  0  0  0
  -12.1896   15.6561   71.2886 C   0  0  0  0  0  0  0  0  0  0  0  0
  -12.2768   15.6000   75.1088 C   0  0  0  0  0  0  0  0  0  0  0  0
   -6.4522   19.3092   67.8826 C   0  0  0  0  0  0  0  0  0  0  0  0
  -12.3537   14.5923   75.5994 O   0  0  0  0  0  0  0  0  0  0  0  0
  -12.4562   16.7011   75.7589 O   0  0  0  0  0  0  0  0  0  0  0  0
   -6.4003   20.4090   67.0296 C   0  0  0  0  0  0  0  0  0  0  0  0
   -5.2435   21.2105   66.8304 C   0  0  0  0  0  0  0  0  0  0  0  0
   -4.2418   21.1199   67.8250 C   0  0  0  0  0  0  0  0  0  0  0  0
   -4.1903   19.9892   68.7682 C   0  0  0  0  0  0  0  0  0  0  0  0
   -5.2508   19.1254   68.8222 C   0  0  0  0  0  0  0  0  0  0  0  0
   -3.1403   19.9377   69.6711 N   0  0  0  0  0  0  0  0  0  0  0  0
  1  2  2  0
  1  6  1  0
  1 11  1  0
  2  3  1  0
  3  4  1  0
  3  7  1  0
  4  9  2  0
  4  5  1  0
  5  6  1  0
  5  8  1  0
  6 10  2  0
  8 13  1  0
 11 12  3  0
 16 19  1  0
 13 20  1  0
 19 21  2  0
 19 22  1  0
 26 28  1  0
 20 23  2  0
 23 24  1  0
 24 25  2  0
 25 26  1  0
 26 27  2  0
 27 20  1  0
  7 18  2  0
 18 17  1  0
 17 16  2  0
 16 15  1  0
 15 14  2  0
 14  7  1  0
M  END

$$$$
No_11-gen_results_new/Mpro_initial_molecule_p3/2024-06-19-20-31-25/
     RDKit          3D

 28 30  0  0  0  0  0  0  0  0999 V2000
  -10.3383   15.1532   67.5971 C   0  0  0  0  0  0  0  0  0  0  0  0
  -10.7220   15.1619   68.8301 N   0  0  0  0  0  0  0  0  0  0  0  0
  -10.4044   16.2024   69.6852 N   0  0  0  0  0  0  0  0  0  0  0  0
   -9.7271   17.3221   69.2607 C   0  0  0  0  0  0  0  0  0  0  0  0
   -9.3095   17.3212   67.9557 N   0  0  0  0  0  0  0  0  0  0  0  0
   -9.5450   16.2958   67.0814 C   0  0  0  0  0  0  0  0  0  0  0  0
  -10.8644   16.0907   71.0374 C   0  0  0  0  0  0  0  0  0  0  0  0
   -8.5330   18.4792   67.4604 C   0  0  0  0  0  0  0  0  0  0  0  0
   -9.5433   18.2987   69.9938 O   0  0  0  0  0  0  0  0  0  0  0  0
   -9.1481   16.2876   65.9124 O   0  0  0  0  0  0  0  0  0  0  0  0
  -10.7304   14.0247   66.8209 C   0  0  0  0  0  0  0  0  0  0  0  0
  -11.1003   13.0895   66.2465 N   0  0  0  0  0  0  0  0  0  0  0  0
   -7.0275   18.2876   67.7219 C   0  0  0  0  0  0  0  0  0  0  0  0
  -10.0126   16.3511   72.1395 C   0  0  0  0  0  0  0  0  0  0  0  0
  -10.4883   16.2212   73.4591 C   0  0  0  0  0  0  0  0  0  0  0  0
  -11.8103   15.8022   73.6966 C   0  0  0  0  0  0  0  0  0  0  0  0
  -12.6594   15.5153   72.6113 C   0  0  0  0  0  0  0  0  0  0  0  0
  -12.1896   15.6561   71.2886 C   0  0  0  0  0  0  0  0  0  0  0  0
  -12.3486   15.5799   75.3255 Cl  0  0  0  0  0  0  0  0  0  0  0  0
   -6.3058   19.3592   66.9157 C   0  0  0  0  0  0  0  0  0  0  0  0
   -4.9894   19.4433   66.9687 C   0  0  0  0  0  0  0  0  0  0  0  0
   -4.2885   20.4306   66.2890 C   0  0  0  0  0  0  0  0  0  0  0  0
   -4.9684   21.5146   65.8589 C   0  0  0  0  0  0  0  0  0  0  0  0
   -6.3744   21.4843   65.8347 C   0  0  0  0  0  0  0  0  0  0  0  0
   -7.0549   20.4513   66.4029 C   0  0  0  0  0  0  0  0  0  0  0  0
   -4.2057   22.5473   65.2377 O   0  0  0  0  0  0  0  0  0  0  0  0
  -14.0279   15.0081   72.7867 O   0  0  0  0  0  0  0  0  0  0  0  0
   -3.6196   22.4807   64.0912 C   0  0  0  0  0  0  0  0  0  0  0  0
  1  2  2  0
  1  6  1  0
  1 11  1  0
  2  3  1  0
  3  4  1  0
  3  7  1  0
  4  9  2  0
  4  5  1  0
  5  6  1  0
  5  8  1  0
  6 10  2  0
  8 13  1  0
 11 12  3  0
 16 19  1  0
 13 20  1  0
 23 26  1  0
 17 27  1  0
 26 28  1  0
 20 21  2  0
 21 22  1  0
 22 23  2  0
 23 24  1  0
 24 25  2  0
 25 20  1  0
  7 18  2  0
 18 17  1  0
 17 16  2  0
 16 15  1  0
 15 14  2  0
 14  7  1  0
M  END

$$$$
No_12-gen_results_new/Mpro_initial_molecule_p3/2024-06-19-20-31-25/
     RDKit          3D

 28 30  0  0  0  0  0  0  0  0999 V2000
  -10.3383   15.1532   67.5971 C   0  0  0  0  0  0  0  0  0  0  0  0
  -10.7220   15.1619   68.8301 N   0  0  0  0  0  0  0  0  0  0  0  0
  -10.4044   16.2024   69.6852 N   0  0  0  0  0  0  0  0  0  0  0  0
   -9.7271   17.3221   69.2607 C   0  0  0  0  0  0  0  0  0  0  0  0
   -9.3095   17.3212   67.9557 N   0  0  0  0  0  0  0  0  0  0  0  0
   -9.5450   16.2958   67.0814 C   0  0  0  0  0  0  0  0  0  0  0  0
  -10.8644   16.0907   71.0374 C   0  0  0  0  0  0  0  0  0  0  0  0
   -8.5330   18.4792   67.4604 C   0  0  0  0  0  0  0  0  0  0  0  0
   -9.5433   18.2987   69.9938 O   0  0  0  0  0  0  0  0  0  0  0  0
   -9.1481   16.2876   65.9124 O   0  0  0  0  0  0  0  0  0  0  0  0
  -10.7304   14.0247   66.8209 C   0  0  0  0  0  0  0  0  0  0  0  0
  -11.1003   13.0895   66.2465 N   0  0  0  0  0  0  0  0  0  0  0  0
   -7.0275   18.2876   67.7219 C   0  0  0  0  0  0  0  0  0  0  0  0
  -10.0126   16.3511   72.1395 C   0  0  0  0  0  0  0  0  0  0  0  0
  -10.4883   16.2212   73.4591 C   0  0  0  0  0  0  0  0  0  0  0  0
  -11.8103   15.8022   73.6966 C   0  0  0  0  0  0  0  0  0  0  0  0
  -12.6594   15.5153   72.6113 C   0  0  0  0  0  0  0  0  0  0  0  0
  -12.1896   15.6561   71.2886 C   0  0  0  0  0  0  0  0  0  0  0  0
  -12.2768   15.6000   75.1088 C   0  0  0  0  0  0  0  0  0  0  0  0
   -6.5341   17.3729   68.3685 C   0  0  0  0  0  0  0  0  0  0  0  0
   -5.1249   17.1827   68.5818 C   0  0  0  0  0  0  0  0  0  0  0  0
   -4.4393   18.0516   67.8378 C   0  0  0  0  0  0  0  0  0  0  0  0
   -4.8689   19.0478   67.0695 C   0  0  0  0  0  0  0  0  0  0  0  0
   -6.2627   19.1643   66.9261 C   0  0  0  0  0  0  0  0  0  0  0  0
  -12.3528   14.5927   75.5996 O   0  0  0  0  0  0  0  0  0  0  0  0
  -12.2293   16.6684   75.8378 O   0  0  0  0  0  0  0  0  0  0  0  0
  -14.0806   14.9482   72.8307 C   0  0  0  0  0  0  0  0  0  0  0  0
   -3.9998   19.9994   66.3275 C   0  0  0  0  0  0  0  0  0  0  0  0
  1  2  2  0
  1  6  1  0
  1 11  1  0
  2  3  1  0
  3  4  1  0
  3  7  1  0
  4  9  2  0
  4  5  1  0
  5  6  1  0
  5  8  1  0
  6 10  2  0
  8 13  1  0
 11 12  3  0
 16 19  1  0
 19 25  2  0
 19 26  1  0
 17 27  1  0
 23 28  1  0
 13 20  2  0
 20 21  1  0
 21 22  2  0
 22 23  1  0
 23 24  2  0
 24 13  1  0
  7 18  2  0
 18 17  1  0
 17 16  2  0
 16 15  1  0
 15 14  2  0
 14  7  1  0
M  END

$$$$
No_13-gen_results_new/Mpro_initial_molecule_p3/2024-06-19-20-31-25/
     RDKit          3D

 28 30  0  0  0  0  0  0  0  0999 V2000
  -10.3383   15.1532   67.5971 C   0  0  0  0  0  0  0  0  0  0  0  0
  -10.7220   15.1619   68.8301 N   0  0  0  0  0  0  0  0  0  0  0  0
  -10.4044   16.2024   69.6852 N   0  0  0  0  0  0  0  0  0  0  0  0
   -9.7271   17.3221   69.2607 C   0  0  0  0  0  0  0  0  0  0  0  0
   -9.3095   17.3212   67.9557 N   0  0  0  0  0  0  0  0  0  0  0  0
   -9.5450   16.2958   67.0814 C   0  0  0  0  0  0  0  0  0  0  0  0
  -10.8644   16.0907   71.0374 C   0  0  0  0  0  0  0  0  0  0  0  0
   -8.5330   18.4792   67.4604 C   0  0  0  0  0  0  0  0  0  0  0  0
   -9.5433   18.2987   69.9938 O   0  0  0  0  0  0  0  0  0  0  0  0
   -9.1481   16.2876   65.9124 O   0  0  0  0  0  0  0  0  0  0  0  0
  -10.7304   14.0247   66.8209 C   0  0  0  0  0  0  0  0  0  0  0  0
  -11.1003   13.0895   66.2465 N   0  0  0  0  0  0  0  0  0  0  0  0
   -7.0275   18.2876   67.7219 C   0  0  0  0  0  0  0  0  0  0  0  0
  -10.0126   16.3511   72.1395 C   0  0  0  0  0  0  0  0  0  0  0  0
  -10.4883   16.2212   73.4591 C   0  0  0  0  0  0  0  0  0  0  0  0
  -11.8103   15.8022   73.6966 C   0  0  0  0  0  0  0  0  0  0  0  0
  -12.6594   15.5153   72.6113 C   0  0  0  0  0  0  0  0  0  0  0  0
  -12.1896   15.6561   71.2886 C   0  0  0  0  0  0  0  0  0  0  0  0
  -12.2768   15.6000   75.1088 C   0  0  0  0  0  0  0  0  0  0  0  0
   -6.5341   17.3729   68.3685 C   0  0  0  0  0  0  0  0  0  0  0  0
   -5.1308   17.1882   68.5568 C   0  0  0  0  0  0  0  0  0  0  0  0
   -6.2282   19.1886   66.9092 C   0  0  0  0  0  0  0  0  0  0  0  0
   -4.8273   19.0035   67.0391 C   0  0  0  0  0  0  0  0  0  0  0  0
   -4.3060   18.0195   67.7979 C   0  0  0  0  0  0  0  0  0  0  0  0
  -12.5817   16.5942   75.6961 O   0  0  0  0  0  0  0  0  0  0  0  0
  -12.0943   14.5161   75.5773 O   0  0  0  0  0  0  0  0  0  0  0  0
   -6.9010   20.4563   65.9108 Cl  0  0  0  0  0  0  0  0  0  0  0  0
   -4.5926   16.0642   69.4048 C   0  0  0  0  0  0  0  0  0  0  0  0
  1  2  2  0
  1  6  1  0
  1 11  1  0
  2  3  1  0
  3  4  1  0
  3  7  1  0
  4  9  2  0
  4  5  1  0
  5  6  1  0
  5  8  1  0
  6 10  2  0
  8 13  1  0
 11 12  3  0
 16 19  1  0
 19 25  1  0
 19 26  2  0
 22 27  1  0
 21 28  1  0
 13 20  2  0
 20 21  1  0
 21 24  2  0
 24 23  1  0
 23 22  2  0
 22 13  1  0
  7 18  2  0
 18 17  1  0
 17 16  2  0
 16 15  1  0
 15 14  2  0
 14  7  1  0
M  END

$$$$
No_14-gen_results_new/Mpro_initial_molecule_p3/2024-06-19-20-31-25/
     RDKit          3D

 28 30  0  0  0  0  0  0  0  0999 V2000
  -10.3383   15.1532   67.5971 C   0  0  0  0  0  0  0  0  0  0  0  0
  -10.7220   15.1619   68.8301 N   0  0  0  0  0  0  0  0  0  0  0  0
  -10.4044   16.2024   69.6852 N   0  0  0  0  0  0  0  0  0  0  0  0
   -9.7271   17.3221   69.2607 C   0  0  0  0  0  0  0  0  0  0  0  0
   -9.3095   17.3212   67.9557 N   0  0  0  0  0  0  0  0  0  0  0  0
   -9.5450   16.2958   67.0814 C   0  0  0  0  0  0  0  0  0  0  0  0
  -10.8644   16.0907   71.0374 C   0  0  0  0  0  0  0  0  0  0  0  0
   -8.5330   18.4792   67.4604 C   0  0  0  0  0  0  0  0  0  0  0  0
   -9.5433   18.2987   69.9938 O   0  0  0  0  0  0  0  0  0  0  0  0
   -9.1481   16.2876   65.9124 O   0  0  0  0  0  0  0  0  0  0  0  0
  -10.7304   14.0247   66.8209 C   0  0  0  0  0  0  0  0  0  0  0  0
  -11.1003   13.0895   66.2465 N   0  0  0  0  0  0  0  0  0  0  0  0
   -7.0275   18.2876   67.7219 C   0  0  0  0  0  0  0  0  0  0  0  0
  -10.0126   16.3511   72.1395 C   0  0  0  0  0  0  0  0  0  0  0  0
  -10.4883   16.2212   73.4591 C   0  0  0  0  0  0  0  0  0  0  0  0
  -11.8103   15.8022   73.6966 C   0  0  0  0  0  0  0  0  0  0  0  0
  -12.6594   15.5153   72.6113 C   0  0  0  0  0  0  0  0  0  0  0  0
  -12.1896   15.6561   71.2886 C   0  0  0  0  0  0  0  0  0  0  0  0
  -12.3486   15.5799   75.3255 Cl  0  0  0  0  0  0  0  0  0  0  0  0
   -6.3058   19.3592   66.9157 C   0  0  0  0  0  0  0  0  0  0  0  0
   -4.9894   19.4433   66.9687 C   0  0  0  0  0  0  0  0  0  0  0  0
   -4.2885   20.4306   66.2890 C   0  0  0  0  0  0  0  0  0  0  0  0
   -4.9684   21.5146   65.8589 C   0  0  0  0  0  0  0  0  0  0  0  0
   -6.3744   21.4843   65.8347 C   0  0  0  0  0  0  0  0  0  0  0  0
   -7.0549   20.4513   66.4029 C   0  0  0  0  0  0  0  0  0  0  0  0
   -4.2057   22.5473   65.2377 O   0  0  0  0  0  0  0  0  0  0  0  0
  -14.0263   14.9884   72.8043 N   0  0  0  0  0  0  0  0  0  0  0  0
   -3.6196   22.4807   64.0912 C   0  0  0  0  0  0  0  0  0  0  0  0
  1  2  2  0
  1  6  1  0
  1 11  1  0
  2  3  1  0
  3  4  1  0
  3  7  1  0
  4  9  2  0
  4  5  1  0
  5  6  1  0
  5  8  1  0
  6 10  2  0
  8 13  1  0
 11 12  3  0
 16 19  1  0
 13 20  1  0
 23 26  1  0
 17 27  1  0
 26 28  1  0
 20 21  2  0
 21 22  1  0
 22 23  2  0
 23 24  1  0
 24 25  2  0
 25 20  1  0
  7 18  2  0
 18 17  1  0
 17 16  2  0
 16 15  1  0
 15 14  2  0
 14  7  1  0
M  END

$$$$
No_15-gen_results_new/Mpro_initial_molecule_p3/2024-06-19-20-31-25/
     RDKit          3D

 28 30  0  0  0  0  0  0  0  0999 V2000
  -10.3383   15.1532   67.5971 C   0  0  0  0  0  0  0  0  0  0  0  0
  -10.7220   15.1619   68.8301 N   0  0  0  0  0  0  0  0  0  0  0  0
  -10.4044   16.2024   69.6852 N   0  0  0  0  0  0  0  0  0  0  0  0
   -9.7271   17.3221   69.2607 C   0  0  0  0  0  0  0  0  0  0  0  0
   -9.3095   17.3212   67.9557 N   0  0  0  0  0  0  0  0  0  0  0  0
   -9.5450   16.2958   67.0814 C   0  0  0  0  0  0  0  0  0  0  0  0
  -10.8644   16.0907   71.0374 C   0  0  0  0  0  0  0  0  0  0  0  0
   -8.5330   18.4792   67.4604 C   0  0  0  0  0  0  0  0  0  0  0  0
   -9.5433   18.2987   69.9938 O   0  0  0  0  0  0  0  0  0  0  0  0
   -9.1481   16.2876   65.9124 O   0  0  0  0  0  0  0  0  0  0  0  0
  -10.7304   14.0247   66.8209 C   0  0  0  0  0  0  0  0  0  0  0  0
  -11.1003   13.0895   66.2465 N   0  0  0  0  0  0  0  0  0  0  0  0
   -7.0275   18.2876   67.7219 C   0  0  0  0  0  0  0  0  0  0  0  0
  -10.0126   16.3511   72.1395 C   0  0  0  0  0  0  0  0  0  0  0  0
  -10.4883   16.2212   73.4591 C   0  0  0  0  0  0  0  0  0  0  0  0
  -11.8103   15.8022   73.6966 C   0  0  0  0  0  0  0  0  0  0  0  0
  -12.6594   15.5153   72.6113 C   0  0  0  0  0  0  0  0  0  0  0  0
  -12.1896   15.6561   71.2886 C   0  0  0  0  0  0  0  0  0  0  0  0
  -12.2768   15.6000   75.1088 C   0  0  0  0  0  0  0  0  0  0  0  0
   -6.5341   17.3729   68.3685 C   0  0  0  0  0  0  0  0  0  0  0  0
   -5.1308   17.1882   68.5568 C   0  0  0  0  0  0  0  0  0  0  0  0
   -6.2352   18.5841   66.5228 C   0  0  0  0  0  0  0  0  0  0  0  0
   -4.8738   18.3561   66.5020 C   0  0  0  0  0  0  0  0  0  0  0  0
   -4.3443   17.5536   67.4637 C   0  0  0  0  0  0  0  0  0  0  0  0
  -12.3528   14.5928   75.5998 O   0  0  0  0  0  0  0  0  0  0  0  0
  -12.2003   16.7299   75.8911 N   0  0  0  0  0  0  0  0  0  0  0  0
   -2.9801   17.2315   67.3801 O   0  0  0  0  0  0  0  0  0  0  0  0
   -2.1274   18.0258   67.9660 C   0  0  0  0  0  0  0  0  0  0  0  0
  1  2  2  0
  1  6  1  0
  1 11  1  0
  2  3  1  0
  3  4  1  0
  3  7  1  0
  4  9  2  0
  4  5  1  0
  5  6  1  0
  5  8  1  0
  6 10  2  0
  8 13  1  0
 11 12  3  0
 16 19  1  0
 19 25  2  0
 19 26  1  0
 24 27  1  0
 27 28  1  0
 13 20  2  0
 20 21  1  0
 21 24  2  0
 24 23  1  0
 23 22  2  0
 22 13  1  0
  7 18  2  0
 18 17  1  0
 17 16  2  0
 16 15  1  0
 15 14  2  0
 14  7  1  0
M  END

$$$$
No_16-gen_results_new/Mpro_initial_molecule_p3/2024-06-19-20-31-25/
     RDKit          3D

 28 30  0  0  0  0  0  0  0  0999 V2000
  -10.3383   15.1532   67.5971 C   0  0  0  0  0  0  0  0  0  0  0  0
  -10.7220   15.1619   68.8301 N   0  0  0  0  0  0  0  0  0  0  0  0
  -10.4044   16.2024   69.6852 N   0  0  0  0  0  0  0  0  0  0  0  0
   -9.7271   17.3221   69.2607 C   0  0  0  0  0  0  0  0  0  0  0  0
   -9.3095   17.3212   67.9557 N   0  0  0  0  0  0  0  0  0  0  0  0
   -9.5450   16.2958   67.0814 C   0  0  0  0  0  0  0  0  0  0  0  0
  -10.8644   16.0907   71.0374 C   0  0  0  0  0  0  0  0  0  0  0  0
   -8.5330   18.4792   67.4604 C   0  0  0  0  0  0  0  0  0  0  0  0
   -9.5433   18.2987   69.9938 O   0  0  0  0  0  0  0  0  0  0  0  0
   -9.1481   16.2876   65.9124 O   0  0  0  0  0  0  0  0  0  0  0  0
  -10.7304   14.0247   66.8209 C   0  0  0  0  0  0  0  0  0  0  0  0
  -11.1003   13.0895   66.2465 N   0  0  0  0  0  0  0  0  0  0  0  0
   -7.0275   18.2876   67.7219 C   0  0  0  0  0  0  0  0  0  0  0  0
  -10.0126   16.3511   72.1395 C   0  0  0  0  0  0  0  0  0  0  0  0
  -10.4883   16.2212   73.4591 C   0  0  0  0  0  0  0  0  0  0  0  0
  -11.8103   15.8022   73.6966 C   0  0  0  0  0  0  0  0  0  0  0  0
  -12.6594   15.5153   72.6113 C   0  0  0  0  0  0  0  0  0  0  0  0
  -12.1896   15.6561   71.2886 C   0  0  0  0  0  0  0  0  0  0  0  0
  -12.3486   15.5799   75.3255 Cl  0  0  0  0  0  0  0  0  0  0  0  0
   -6.5558   17.2018   67.9045 O   0  0  0  0  0  0  0  0  0  0  0  0
   -6.3090   19.3658   67.4558 N   0  0  0  0  0  0  0  0  0  0  0  0
   -4.9194   19.4057   67.5522 C   0  0  0  0  0  0  0  0  0  0  0  0
   -4.4068   19.6666   68.7677 C   0  0  0  0  0  0  0  0  0  0  0  0
   -2.9319   19.7091   68.8069 C   0  0  0  0  0  0  0  0  0  0  0  0
   -2.2019   19.6954   67.7010 C   0  0  0  0  0  0  0  0  0  0  0  0
   -2.8147   19.5764   66.4236 C   0  0  0  0  0  0  0  0  0  0  0  0
   -4.2111   19.4305   66.3664 C   0  0  0  0  0  0  0  0  0  0  0  0
   -5.1136   19.7805   69.8979 F   0  0  0  0  0  0  0  0  0  0  0  0
  1  2  2  0
  1  6  1  0
  1 11  1  0
  2  3  1  0
  3  4  1  0
  3  7  1  0
  4  9  2  0
  4  5  1  0
  5  6  1  0
  5  8  1  0
  6 10  2  0
  8 13  1  0
 11 12  3  0
 16 19  1  0
 13 20  2  0
 13 21  1  0
 21 22  1  0
 23 28  1  0
 22 23  2  0
 23 24  1  0
 24 25  2  0
 25 26  1  0
 26 27  2  0
 27 22  1  0
  7 18  2  0
 18 17  1  0
 17 16  2  0
 16 15  1  0
 15 14  2  0
 14  7  1  0
M  END

$$$$
No_17-gen_results_new/Mpro_initial_molecule_p3/2024-06-19-20-31-25/
     RDKit          3D

 28 30  0  0  0  0  0  0  0  0999 V2000
  -10.3383   15.1532   67.5971 C   0  0  0  0  0  0  0  0  0  0  0  0
  -10.7220   15.1619   68.8301 N   0  0  0  0  0  0  0  0  0  0  0  0
  -10.4044   16.2024   69.6852 N   0  0  0  0  0  0  0  0  0  0  0  0
   -9.7271   17.3221   69.2607 C   0  0  0  0  0  0  0  0  0  0  0  0
   -9.3095   17.3212   67.9557 N   0  0  0  0  0  0  0  0  0  0  0  0
   -9.5450   16.2958   67.0814 C   0  0  0  0  0  0  0  0  0  0  0  0
  -10.8644   16.0907   71.0374 C   0  0  0  0  0  0  0  0  0  0  0  0
   -8.5330   18.4792   67.4604 C   0  0  0  0  0  0  0  0  0  0  0  0
   -9.5433   18.2987   69.9938 O   0  0  0  0  0  0  0  0  0  0  0  0
   -9.1481   16.2876   65.9124 O   0  0  0  0  0  0  0  0  0  0  0  0
  -10.7304   14.0247   66.8209 C   0  0  0  0  0  0  0  0  0  0  0  0
  -11.1003   13.0895   66.2465 N   0  0  0  0  0  0  0  0  0  0  0  0
   -7.0275   18.2876   67.7219 C   0  0  0  0  0  0  0  0  0  0  0  0
  -10.0126   16.3511   72.1395 C   0  0  0  0  0  0  0  0  0  0  0  0
  -10.4883   16.2212   73.4591 C   0  0  0  0  0  0  0  0  0  0  0  0
  -11.8103   15.8022   73.6966 C   0  0  0  0  0  0  0  0  0  0  0  0
  -12.6594   15.5153   72.6113 C   0  0  0  0  0  0  0  0  0  0  0  0
  -12.1896   15.6561   71.2886 C   0  0  0  0  0  0  0  0  0  0  0  0
  -12.2768   15.6000   75.1088 C   0  0  0  0  0  0  0  0  0  0  0  0
   -6.5341   17.3729   68.3685 C   0  0  0  0  0  0  0  0  0  0  0  0
   -5.1308   17.1882   68.5568 C   0  0  0  0  0  0  0  0  0  0  0  0
   -6.2282   19.1886   66.9092 C   0  0  0  0  0  0  0  0  0  0  0  0
   -4.8273   19.0035   67.0391 C   0  0  0  0  0  0  0  0  0  0  0  0
   -4.3060   18.0195   67.7979 C   0  0  0  0  0  0  0  0  0  0  0  0
  -12.3528   14.5927   75.5997 O   0  0  0  0  0  0  0  0  0  0  0  0
  -12.8124   16.6655   75.6553 O   0  0  0  0  0  0  0  0  0  0  0  0
  -14.3025   14.8790   72.8349 Cl  0  0  0  0  0  0  0  0  0  0  0  0
   -6.7606   20.1931   66.1163 O   0  0  0  0  0  0  0  0  0  0  0  0
  1  2  2  0
  1  6  1  0
  1 11  1  0
  2  3  1  0
  3  4  1  0
  3  7  1  0
  4  9  2  0
  4  5  1  0
  5  6  1  0
  5  8  1  0
  6 10  2  0
  8 13  1  0
 11 12  3  0
 16 19  1  0
 19 25  2  0
 19 26  1  0
 17 27  1  0
 22 28  1  0
 13 20  2  0
 20 21  1  0
 21 24  2  0
 24 23  1  0
 23 22  2  0
 22 13  1  0
  7 18  2  0
 18 17  1  0
 17 16  2  0
 16 15  1  0
 15 14  2  0
 14  7  1  0
M  END

$$$$
No_18-gen_results_new/Mpro_initial_molecule_p3/2024-06-19-20-31-25/
     RDKit          3D

 28 30  0  0  0  0  0  0  0  0999 V2000
  -10.3383   15.1532   67.5971 C   0  0  0  0  0  0  0  0  0  0  0  0
  -10.7220   15.1619   68.8301 N   0  0  0  0  0  0  0  0  0  0  0  0
  -10.4044   16.2024   69.6852 N   0  0  0  0  0  0  0  0  0  0  0  0
   -9.7271   17.3221   69.2607 C   0  0  0  0  0  0  0  0  0  0  0  0
   -9.3095   17.3212   67.9557 N   0  0  0  0  0  0  0  0  0  0  0  0
   -9.5450   16.2958   67.0814 C   0  0  0  0  0  0  0  0  0  0  0  0
  -10.8644   16.0907   71.0374 C   0  0  0  0  0  0  0  0  0  0  0  0
   -8.5330   18.4792   67.4604 C   0  0  0  0  0  0  0  0  0  0  0  0
   -9.5433   18.2987   69.9938 O   0  0  0  0  0  0  0  0  0  0  0  0
   -9.1481   16.2876   65.9124 O   0  0  0  0  0  0  0  0  0  0  0  0
  -10.7304   14.0247   66.8209 C   0  0  0  0  0  0  0  0  0  0  0  0
  -11.1003   13.0895   66.2465 N   0  0  0  0  0  0  0  0  0  0  0  0
   -7.0275   18.2876   67.7219 C   0  0  0  0  0  0  0  0  0  0  0  0
  -10.0126   16.3511   72.1395 C   0  0  0  0  0  0  0  0  0  0  0  0
  -10.4883   16.2212   73.4591 C   0  0  0  0  0  0  0  0  0  0  0  0
  -11.8103   15.8022   73.6966 C   0  0  0  0  0  0  0  0  0  0  0  0
  -12.6594   15.5153   72.6113 C   0  0  0  0  0  0  0  0  0  0  0  0
  -12.1896   15.6561   71.2886 C   0  0  0  0  0  0  0  0  0  0  0  0
  -12.2768   15.6000   75.1088 C   0  0  0  0  0  0  0  0  0  0  0  0
   -6.4522   19.3092   67.8826 C   0  0  0  0  0  0  0  0  0  0  0  0
  -12.5808   16.5955   75.6954 O   0  0  0  0  0  0  0  0  0  0  0  0
  -11.8948   14.5567   75.6573 O   0  0  0  0  0  0  0  0  0  0  0  0
   -4.9618   19.3659   67.8987 C   0  0  0  0  0  0  0  0  0  0  0  0
   -4.2441   20.6399   68.0494 C   0  0  0  0  0  0  0  0  0  0  0  0
   -2.7762   20.4483   67.8354 C   0  0  0  0  0  0  0  0  0  0  0  0
   -2.2060   19.1395   67.6792 C   0  0  0  0  0  0  0  0  0  0  0  0
   -3.0338   18.0498   67.7034 C   0  0  0  0  0  0  0  0  0  0  0  0
   -4.3688   18.0920   67.7355 C   0  0  0  0  0  0  0  0  0  0  0  0
  1  2  2  0
  1  6  1  0
  1 11  1  0
  2  3  1  0
  3  4  1  0
  3  7  1  0
  4  9  2  0
  4  5  1  0
  5  6  1  0
  5  8  1  0
  6 10  2  0
  8 13  1  0
 11 12  3  0
 16 19  1  0
 13 20  1  0
 19 21  2  0
 19 22  1  0
 20 23  1  0
 23 24  2  0
 24 25  1  0
 25 26  2  0
 26 27  1  0
 27 28  2  0
 28 23  1  0
  7 18  2  0
 18 17  1  0
 17 16  2  0
 16 15  1  0
 15 14  2  0
 14  7  1  0
M  END

$$$$
No_19-gen_results_new/Mpro_initial_molecule_p3/2024-06-19-20-31-25/
     RDKit          3D

 26 28  0  0  0  0  0  0  0  0999 V2000
  -10.3383   15.1532   67.5971 C   0  0  0  0  0  0  0  0  0  0  0  0
  -10.7220   15.1619   68.8301 N   0  0  0  0  0  0  0  0  0  0  0  0
  -10.4044   16.2024   69.6852 N   0  0  0  0  0  0  0  0  0  0  0  0
   -9.7271   17.3221   69.2607 C   0  0  0  0  0  0  0  0  0  0  0  0
   -9.3095   17.3212   67.9557 N   0  0  0  0  0  0  0  0  0  0  0  0
   -9.5450   16.2958   67.0814 C   0  0  0  0  0  0  0  0  0  0  0  0
  -10.8644   16.0907   71.0374 C   0  0  0  0  0  0  0  0  0  0  0  0
   -8.5330   18.4792   67.4604 C   0  0  0  0  0  0  0  0  0  0  0  0
   -9.5433   18.2987   69.9938 O   0  0  0  0  0  0  0  0  0  0  0  0
   -9.1481   16.2876   65.9124 O   0  0  0  0  0  0  0  0  0  0  0  0
  -10.7304   14.0247   66.8209 C   0  0  0  0  0  0  0  0  0  0  0  0
  -11.1003   13.0895   66.2465 N   0  0  0  0  0  0  0  0  0  0  0  0
   -7.0275   18.2876   67.7219 C   0  0  0  0  0  0  0  0  0  0  0  0
  -10.0126   16.3511   72.1395 C   0  0  0  0  0  0  0  0  0  0  0  0
  -10.4883   16.2212   73.4591 C   0  0  0  0  0  0  0  0  0  0  0  0
  -11.8103   15.8022   73.6966 C   0  0  0  0  0  0  0  0  0  0  0  0
  -12.6594   15.5153   72.6113 C   0  0  0  0  0  0  0  0  0  0  0  0
  -12.1896   15.6561   71.2886 C   0  0  0  0  0  0  0  0  0  0  0  0
  -12.3486   15.5799   75.3255 Cl  0  0  0  0  0  0  0  0  0  0  0  0
   -6.3331   19.2809   66.8951 N   0  0  0  0  0  0  0  0  0  0  0  0
   -4.9893   19.0972   66.8661 C   0  0  0  0  0  0  0  0  0  0  0  0
   -4.2346   20.0292   66.0213 C   0  0  0  0  0  0  0  0  0  0  0  0
   -5.0605   20.9199   65.6439 N   0  0  0  0  0  0  0  0  0  0  0  0
   -6.3189   21.2403   65.8472 C   0  0  0  0  0  0  0  0  0  0  0  0
   -7.0084   20.3074   66.4307 C   0  0  0  0  0  0  0  0  0  0  0  0
   -6.5926   17.3579   68.3821 O   0  0  0  0  0  0  0  0  0  0  0  0
  1  2  2  0
  1  6  1  0
  1 11  1  0
  2  3  1  0
  3  4  1  0
  3  7  1  0
  4  9  2  0
  4  5  1  0
  5  6  1  0
  5  8  1  0
  6 10  2  0
  8 13  1  0
 11 12  3  0
 16 19  1  0
 13 20  1  0
 20 21  1  0
 22 23  1  0
 20 25  1  0
 24 25  1  0
 13 26  2  0
 21 22  1  0
 23 24  1  0
  7 18  2  0
 18 17  1  0
 17 16  2  0
 16 15  1  0
 15 14  2  0
 14  7  1  0
M  END

$$$$
No_20-gen_results_new/Mpro_initial_molecule_p3/2024-06-19-20-31-25/
     RDKit          3D

 26 28  0  0  0  0  0  0  0  0999 V2000
  -10.3383   15.1532   67.5971 C   0  0  0  0  0  0  0  0  0  0  0  0
  -10.7220   15.1619   68.8301 N   0  0  0  0  0  0  0  0  0  0  0  0
  -10.4044   16.2024   69.6852 N   0  0  0  0  0  0  0  0  0  0  0  0
   -9.7271   17.3221   69.2607 C   0  0  0  0  0  0  0  0  0  0  0  0
   -9.3095   17.3212   67.9557 N   0  0  0  0  0  0  0  0  0  0  0  0
   -9.5450   16.2958   67.0814 C   0  0  0  0  0  0  0  0  0  0  0  0
  -10.8644   16.0907   71.0374 C   0  0  0  0  0  0  0  0  0  0  0  0
   -8.5330   18.4792   67.4604 C   0  0  0  0  0  0  0  0  0  0  0  0
   -9.5433   18.2987   69.9938 O   0  0  0  0  0  0  0  0  0  0  0  0
   -9.1481   16.2876   65.9124 O   0  0  0  0  0  0  0  0  0  0  0  0
  -10.7304   14.0247   66.8209 C   0  0  0  0  0  0  0  0  0  0  0  0
  -11.1003   13.0895   66.2465 N   0  0  0  0  0  0  0  0  0  0  0  0
   -7.0275   18.2876   67.7219 C   0  0  0  0  0  0  0  0  0  0  0  0
  -10.0126   16.3511   72.1395 C   0  0  0  0  0  0  0  0  0  0  0  0
  -10.4883   16.2212   73.4591 C   0  0  0  0  0  0  0  0  0  0  0  0
  -11.8103   15.8022   73.6966 C   0  0  0  0  0  0  0  0  0  0  0  0
  -12.6594   15.5153   72.6113 C   0  0  0  0  0  0  0  0  0  0  0  0
  -12.1896   15.6561   71.2886 C   0  0  0  0  0  0  0  0  0  0  0  0
  -12.3486   15.5799   75.3255 Cl  0  0  0  0  0  0  0  0  0  0  0  0
   -6.5344   17.3734   68.3696 C   0  0  0  0  0  0  0  0  0  0  0  0
   -5.2054   17.6254   68.8146 C   0  0  0  0  0  0  0  0  0  0  0  0
   -4.3973   18.3723   68.1960 C   0  0  0  0  0  0  0  0  0  0  0  0
   -4.9302   19.3250   67.3326 C   0  0  0  0  0  0  0  0  0  0  0  0
   -6.2849   19.2672   67.0141 C   0  0  0  0  0  0  0  0  0  0  0  0
   -6.9631   20.2673   66.2377 N   0  0  0  0  0  0  0  0  0  0  0  0
   -8.3007   20.2388   66.0219 O   0  0  0  0  0  0  0  0  0  0  0  0
  1  2  2  0
  1  6  1  0
  1 11  1  0
  2  3  1  0
  3  4  1  0
  3  7  1  0
  4  9  2  0
  4  5  1  0
  5  6  1  0
  5  8  1  0
  6 10  2  0
  8 13  1  0
 11 12  3  0
 16 19  1  0
 24 25  1  0
 25 26  1  0
 13 20  2  0
 20 21  1  0
 21 22  2  0
 22 23  1  0
 23 24  2  0
 24 13  1  0
  7 18  2  0
 18 17  1  0
 17 16  2  0
 16 15  1  0
 15 14  2  0
 14  7  1  0
M  END

$$$$
No_21-gen_results_new/Mpro_initial_molecule_p3/2024-06-19-20-31-25/
     RDKit          3D

 28 30  0  0  0  0  0  0  0  0999 V2000
  -10.3383   15.1532   67.5971 C   0  0  0  0  0  0  0  0  0  0  0  0
  -10.7220   15.1619   68.8301 N   0  0  0  0  0  0  0  0  0  0  0  0
  -10.4044   16.2024   69.6852 N   0  0  0  0  0  0  0  0  0  0  0  0
   -9.7271   17.3221   69.2607 C   0  0  0  0  0  0  0  0  0  0  0  0
   -9.3095   17.3212   67.9557 N   0  0  0  0  0  0  0  0  0  0  0  0
   -9.5450   16.2958   67.0814 C   0  0  0  0  0  0  0  0  0  0  0  0
  -10.8644   16.0907   71.0374 C   0  0  0  0  0  0  0  0  0  0  0  0
   -8.5330   18.4792   67.4604 C   0  0  0  0  0  0  0  0  0  0  0  0
   -9.5433   18.2987   69.9938 O   0  0  0  0  0  0  0  0  0  0  0  0
   -9.1481   16.2876   65.9124 O   0  0  0  0  0  0  0  0  0  0  0  0
  -10.7304   14.0247   66.8209 C   0  0  0  0  0  0  0  0  0  0  0  0
  -11.1003   13.0895   66.2465 N   0  0  0  0  0  0  0  0  0  0  0  0
   -7.0275   18.2876   67.7219 C   0  0  0  0  0  0  0  0  0  0  0  0
  -10.0126   16.3511   72.1395 C   0  0  0  0  0  0  0  0  0  0  0  0
  -10.4883   16.2212   73.4591 C   0  0  0  0  0  0  0  0  0  0  0  0
  -11.8103   15.8022   73.6966 C   0  0  0  0  0  0  0  0  0  0  0  0
  -12.6594   15.5153   72.6113 C   0  0  0  0  0  0  0  0  0  0  0  0
  -12.1896   15.6561   71.2886 C   0  0  0  0  0  0  0  0  0  0  0  0
  -12.2768   15.6000   75.1088 C   0  0  0  0  0  0  0  0  0  0  0  0
   -6.3059   19.3590   66.9154 C   0  0  0  0  0  0  0  0  0  0  0  0
   -6.9578   20.4797   66.4322 C   0  0  0  0  0  0  0  0  0  0  0  0
   -8.3628   20.5494   66.3744 C   0  0  0  0  0  0  0  0  0  0  0  0
   -9.1835   19.4925   66.8327 C   0  0  0  0  0  0  0  0  0  0  0  0
  -12.3545   14.5927   75.5994 O   0  0  0  0  0  0  0  0  0  0  0  0
  -12.4205   16.7487   75.8011 N   0  0  0  0  0  0  0  0  0  0  0  0
   -6.0996   21.4745   65.9921 O   0  0  0  0  0  0  0  0  0  0  0  0
   -4.9522   19.3086   67.1798 O   0  0  0  0  0  0  0  0  0  0  0  0
   -4.2880   18.2392   67.5940 C   0  0  0  0  0  0  0  0  0  0  0  0
  1  2  2  0
  1  6  1  0
  1 11  1  0
  2  3  1  0
  3  4  1  0
  3  7  1  0
  4  9  2  0
  4  5  1  0
  5  6  1  0
  5  8  1  0
  6 10  2  0
 11 12  3  0
 16 19  1  0
 19 24  2  0
 19 25  1  0
 21 26  1  0
 20 27  1  0
 27 28  1  0
  8 13  2  0
 13 20  1  0
 20 21  2  0
 21 22  1  0
 22 23  2  0
 23  8  1  0
  7 18  2  0
 18 17  1  0
 17 16  2  0
 16 15  1  0
 15 14  2  0
 14  7  1  0
M  END

$$$$
No_22-gen_results_new/Mpro_initial_molecule_p3/2024-06-19-20-31-25/
     RDKit          3D

 28 30  0  0  0  0  0  0  0  0999 V2000
  -10.3383   15.1532   67.5971 C   0  0  0  0  0  0  0  0  0  0  0  0
  -10.7220   15.1619   68.8301 N   0  0  0  0  0  0  0  0  0  0  0  0
  -10.4044   16.2024   69.6852 N   0  0  0  0  0  0  0  0  0  0  0  0
   -9.7271   17.3221   69.2607 C   0  0  0  0  0  0  0  0  0  0  0  0
   -9.3095   17.3212   67.9557 N   0  0  0  0  0  0  0  0  0  0  0  0
   -9.5450   16.2958   67.0814 C   0  0  0  0  0  0  0  0  0  0  0  0
  -10.8644   16.0907   71.0374 C   0  0  0  0  0  0  0  0  0  0  0  0
   -8.5330   18.4792   67.4604 C   0  0  0  0  0  0  0  0  0  0  0  0
   -9.5433   18.2987   69.9938 O   0  0  0  0  0  0  0  0  0  0  0  0
   -9.1481   16.2876   65.9124 O   0  0  0  0  0  0  0  0  0  0  0  0
  -10.7304   14.0247   66.8209 C   0  0  0  0  0  0  0  0  0  0  0  0
  -11.1003   13.0895   66.2465 N   0  0  0  0  0  0  0  0  0  0  0  0
   -7.0275   18.2876   67.7219 C   0  0  0  0  0  0  0  0  0  0  0  0
  -10.0126   16.3511   72.1395 C   0  0  0  0  0  0  0  0  0  0  0  0
  -10.4883   16.2212   73.4591 C   0  0  0  0  0  0  0  0  0  0  0  0
  -11.8103   15.8022   73.6966 C   0  0  0  0  0  0  0  0  0  0  0  0
  -12.6594   15.5153   72.6113 C   0  0  0  0  0  0  0  0  0  0  0  0
  -12.1896   15.6561   71.2886 C   0  0  0  0  0  0  0  0  0  0  0  0
  -12.2768   15.6000   75.1088 C   0  0  0  0  0  0  0  0  0  0  0  0
   -6.4522   19.3092   67.8826 C   0  0  0  0  0  0  0  0  0  0  0  0
  -12.5808   16.5955   75.6954 O   0  0  0  0  0  0  0  0  0  0  0  0
  -11.8948   14.5567   75.6573 O   0  0  0  0  0  0  0  0  0  0  0  0
   -6.3971   20.4090   67.0298 C   0  0  0  0  0  0  0  0  0  0  0  0
   -7.7778   20.6234   66.4341 C   0  0  0  0  0  0  0  0  0  0  0  0
   -8.8490   19.6574   66.7133 C   0  0  0  0  0  0  0  0  0  0  0  0
   -5.5131   21.3552   66.7980 O   0  0  0  0  0  0  0  0  0  0  0  0
  -14.0799   14.9610   72.8157 C   0  0  0  0  0  0  0  0  0  0  0  0
   -4.9496   21.4567   65.5094 C   0  0  0  0  0  0  0  0  0  0  0  0
  1  2  2  0
  1  6  1  0
  1 11  1  0
  2  3  1  0
  3  4  1  0
  3  7  1  0
  4  9  2  0
  4  5  1  0
  5  6  1  0
  5  8  1  0
  6 10  2  0
 11 12  3  0
 16 19  1  0
 19 21  2  0
 19 22  1  0
 23 26  1  0
 17 27  1  0
 26 28  1  0
  8 13  2  0
 13 20  1  0
 20 23  2  0
 23 24  1  0
 24 25  2  0
 25  8  1  0
  7 18  2  0
 18 17  1  0
 17 16  2  0
 16 15  1  0
 15 14  2  0
 14  7  1  0
M  END

$$$$
No_23-gen_results_new/Mpro_initial_molecule_p3/2024-06-19-20-31-25/
     RDKit          3D

 28 30  0  0  0  0  0  0  0  0999 V2000
  -10.3383   15.1532   67.5971 C   0  0  0  0  0  0  0  0  0  0  0  0
  -10.7220   15.1619   68.8301 N   0  0  0  0  0  0  0  0  0  0  0  0
  -10.4044   16.2024   69.6852 N   0  0  0  0  0  0  0  0  0  0  0  0
   -9.7271   17.3221   69.2607 C   0  0  0  0  0  0  0  0  0  0  0  0
   -9.3095   17.3212   67.9557 N   0  0  0  0  0  0  0  0  0  0  0  0
   -9.5450   16.2958   67.0814 C   0  0  0  0  0  0  0  0  0  0  0  0
  -10.8644   16.0907   71.0374 C   0  0  0  0  0  0  0  0  0  0  0  0
   -8.5330   18.4792   67.4604 C   0  0  0  0  0  0  0  0  0  0  0  0
   -9.5433   18.2987   69.9938 O   0  0  0  0  0  0  0  0  0  0  0  0
   -9.1481   16.2876   65.9124 O   0  0  0  0  0  0  0  0  0  0  0  0
  -10.7304   14.0247   66.8209 C   0  0  0  0  0  0  0  0  0  0  0  0
  -11.1003   13.0895   66.2465 N   0  0  0  0  0  0  0  0  0  0  0  0
   -7.0275   18.2876   67.7219 C   0  0  0  0  0  0  0  0  0  0  0  0
  -10.0126   16.3511   72.1395 C   0  0  0  0  0  0  0  0  0  0  0  0
  -10.4883   16.2212   73.4591 C   0  0  0  0  0  0  0  0  0  0  0  0
  -11.8103   15.8022   73.6966 C   0  0  0  0  0  0  0  0  0  0  0  0
  -12.6594   15.5153   72.6113 C   0  0  0  0  0  0  0  0  0  0  0  0
  -12.1896   15.6561   71.2886 C   0  0  0  0  0  0  0  0  0  0  0  0
  -12.2768   15.6000   75.1088 C   0  0  0  0  0  0  0  0  0  0  0  0
   -6.5341   17.3729   68.3685 C   0  0  0  0  0  0  0  0  0  0  0  0
   -5.1308   17.1882   68.5568 C   0  0  0  0  0  0  0  0  0  0  0  0
   -6.3132   19.4047   67.2946 C   0  0  0  0  0  0  0  0  0  0  0  0
   -6.9038   20.4436   66.7162 F   0  0  0  0  0  0  0  0  0  0  0  0
   -4.9316   19.3464   67.5425 C   0  0  0  0  0  0  0  0  0  0  0  0
   -4.3525   18.2403   68.1387 C   0  0  0  0  0  0  0  0  0  0  0  0
  -12.6562   14.5404   75.4427 F   0  0  0  0  0  0  0  0  0  0  0  0
  -13.1184   16.6095   75.4029 F   0  0  0  0  0  0  0  0  0  0  0  0
  -11.2605   15.8357   75.9945 F   0  0  0  0  0  0  0  0  0  0  0  0
  1  2  2  0
  1  6  1  0
  1 11  1  0
  2  3  1  0
  3  4  1  0
  3  7  1  0
  4  9  2  0
  4  5  1  0
  5  6  1  0
  5  8  1  0
  6 10  2  0
  8 13  1  0
 11 12  3  0
 16 19  1  0
 22 23  1  0
 19 26  1  0
 19 27  1  0
 19 28  1  0
 13 20  2  0
 20 21  1  0
 21 25  2  0
 25 24  1  0
 24 22  2  0
 22 13  1  0
  7 18  2  0
 18 17  1  0
 17 16  2  0
 16 15  1  0
 15 14  2  0
 14  7  1  0
M  END

$$$$
No_24-gen_results_new/Mpro_initial_molecule_p3/2024-06-19-20-31-25/
     RDKit          3D

 28 30  0  0  0  0  0  0  0  0999 V2000
  -10.3383   15.1532   67.5971 C   0  0  0  0  0  0  0  0  0  0  0  0
  -10.7220   15.1619   68.8301 N   0  0  0  0  0  0  0  0  0  0  0  0
  -10.4044   16.2024   69.6852 N   0  0  0  0  0  0  0  0  0  0  0  0
   -9.7271   17.3221   69.2607 C   0  0  0  0  0  0  0  0  0  0  0  0
   -9.3095   17.3212   67.9557 N   0  0  0  0  0  0  0  0  0  0  0  0
   -9.5450   16.2958   67.0814 C   0  0  0  0  0  0  0  0  0  0  0  0
  -10.8644   16.0907   71.0374 C   0  0  0  0  0  0  0  0  0  0  0  0
   -8.5330   18.4792   67.4604 C   0  0  0  0  0  0  0  0  0  0  0  0
   -9.5433   18.2987   69.9938 O   0  0  0  0  0  0  0  0  0  0  0  0
   -9.1481   16.2876   65.9124 O   0  0  0  0  0  0  0  0  0  0  0  0
  -10.7304   14.0247   66.8209 C   0  0  0  0  0  0  0  0  0  0  0  0
  -11.1003   13.0895   66.2465 N   0  0  0  0  0  0  0  0  0  0  0  0
   -7.0275   18.2876   67.7219 C   0  0  0  0  0  0  0  0  0  0  0  0
  -10.0126   16.3511   72.1395 C   0  0  0  0  0  0  0  0  0  0  0  0
  -10.4883   16.2212   73.4591 C   0  0  0  0  0  0  0  0  0  0  0  0
  -11.8103   15.8022   73.6966 C   0  0  0  0  0  0  0  0  0  0  0  0
  -12.6594   15.5153   72.6113 C   0  0  0  0  0  0  0  0  0  0  0  0
  -12.1896   15.6561   71.2886 C   0  0  0  0  0  0  0  0  0  0  0  0
  -12.2484   15.6088   75.0145 O   0  0  0  0  0  0  0  0  0  0  0  0
   -6.3059   19.3591   66.9155 C   0  0  0  0  0  0  0  0  0  0  0  0
   -4.9923   19.4463   66.9703 C   0  0  0  0  0  0  0  0  0  0  0  0
   -4.2717   18.3411   67.6555 C   0  0  0  0  0  0  0  0  0  0  0  0
   -5.0436   17.2562   68.3053 C   0  0  0  0  0  0  0  0  0  0  0  0
   -6.4249   17.2341   68.1852 C   0  0  0  0  0  0  0  0  0  0  0  0
  -11.8786   16.5249   75.9061 C   0  0  0  0  0  0  0  0  0  0  0  0
   -4.2041   20.4303   66.3821 C   0  0  0  0  0  0  0  0  0  0  0  0
   -3.0602   20.6187   66.8112 O   0  0  0  0  0  0  0  0  0  0  0  0
   -4.7662   21.4403   65.6698 N   0  0  0  0  0  0  0  0  0  0  0  0
  1  2  2  0
  1  6  1  0
  1 11  1  0
  2  3  1  0
  3  4  1  0
  3  7  1  0
  4  9  2  0
  4  5  1  0
  5  6  1  0
  5  8  1  0
  6 10  2  0
  8 13  1  0
 11 12  3  0
 16 19  1  0
 19 25  1  0
 21 26  1  0
 26 27  2  0
 26 28  1  0
 13 20  2  0
 20 21  1  0
 21 22  2  0
 22 23  1  0
 23 24  2  0
 24 13  1  0
  7 18  2  0
 18 17  1  0
 17 16  2  0
 16 15  1  0
 15 14  2  0
 14  7  1  0
M  END

$$$$
No_25-gen_results_new/Mpro_initial_molecule_p3/2024-06-19-20-31-25/
     RDKit          3D

 28 30  0  0  0  0  0  0  0  0999 V2000
  -10.3383   15.1532   67.5971 C   0  0  0  0  0  0  0  0  0  0  0  0
  -10.7220   15.1619   68.8301 N   0  0  0  0  0  0  0  0  0  0  0  0
  -10.4044   16.2024   69.6852 N   0  0  0  0  0  0  0  0  0  0  0  0
   -9.7271   17.3221   69.2607 C   0  0  0  0  0  0  0  0  0  0  0  0
   -9.3095   17.3212   67.9557 N   0  0  0  0  0  0  0  0  0  0  0  0
   -9.5450   16.2958   67.0814 C   0  0  0  0  0  0  0  0  0  0  0  0
  -10.8644   16.0907   71.0374 C   0  0  0  0  0  0  0  0  0  0  0  0
   -8.5330   18.4792   67.4604 C   0  0  0  0  0  0  0  0  0  0  0  0
   -9.5433   18.2987   69.9938 O   0  0  0  0  0  0  0  0  0  0  0  0
   -9.1481   16.2876   65.9124 O   0  0  0  0  0  0  0  0  0  0  0  0
  -10.7304   14.0247   66.8209 C   0  0  0  0  0  0  0  0  0  0  0  0
  -11.1003   13.0895   66.2465 N   0  0  0  0  0  0  0  0  0  0  0  0
   -7.0275   18.2876   67.7219 C   0  0  0  0  0  0  0  0  0  0  0  0
  -10.0126   16.3511   72.1395 C   0  0  0  0  0  0  0  0  0  0  0  0
  -10.4883   16.2212   73.4591 C   0  0  0  0  0  0  0  0  0  0  0  0
  -11.8103   15.8022   73.6966 C   0  0  0  0  0  0  0  0  0  0  0  0
  -12.6594   15.5153   72.6113 C   0  0  0  0  0  0  0  0  0  0  0  0
  -12.1896   15.6561   71.2886 C   0  0  0  0  0  0  0  0  0  0  0  0
  -12.2768   15.6000   75.1088 C   0  0  0  0  0  0  0  0  0  0  0  0
   -6.3059   19.3590   66.9154 C   0  0  0  0  0  0  0  0  0  0  0  0
   -4.9893   19.4432   66.9685 C   0  0  0  0  0  0  0  0  0  0  0  0
   -4.2710   18.3392   67.6545 C   0  0  0  0  0  0  0  0  0  0  0  0
   -5.0431   17.2552   68.3050 C   0  0  0  0  0  0  0  0  0  0  0  0
   -6.4246   17.2337   68.1850 C   0  0  0  0  0  0  0  0  0  0  0  0
  -12.3524   14.5924   75.5996 O   0  0  0  0  0  0  0  0  0  0  0  0
  -12.8125   16.6652   75.6555 O   0  0  0  0  0  0  0  0  0  0  0  0
   -4.2772   20.3483   66.4179 O   0  0  0  0  0  0  0  0  0  0  0  0
   -4.0885   20.5601   65.2624 C   0  0  0  0  0  0  0  0  0  0  0  0
  1  2  2  0
  1  6  1  0
  1 11  1  0
  2  3  1  0
  3  4  1  0
  3  7  1  0
  4  9  2  0
  4  5  1  0
  5  6  1  0
  5  8  1  0
  6 10  2  0
  8 13  1  0
 11 12  3  0
 16 19  1  0
 19 25  2  0
 19 26  1  0
 21 27  1  0
 27 28  1  0
 13 20  2  0
 20 21  1  0
 21 22  2  0
 22 23  1  0
 23 24  2  0
 24 13  1  0
  7 18  2  0
 18 17  1  0
 17 16  2  0
 16 15  1  0
 15 14  2  0
 14  7  1  0
M  END

$$$$
No_26-gen_results_new/Mpro_initial_molecule_p3/2024-06-19-20-31-25/
     RDKit          3D

 28 30  0  0  0  0  0  0  0  0999 V2000
  -10.3383   15.1532   67.5971 C   0  0  0  0  0  0  0  0  0  0  0  0
  -10.7220   15.1619   68.8301 N   0  0  0  0  0  0  0  0  0  0  0  0
  -10.4044   16.2024   69.6852 N   0  0  0  0  0  0  0  0  0  0  0  0
   -9.7271   17.3221   69.2607 C   0  0  0  0  0  0  0  0  0  0  0  0
   -9.3095   17.3212   67.9557 N   0  0  0  0  0  0  0  0  0  0  0  0
   -9.5450   16.2958   67.0814 C   0  0  0  0  0  0  0  0  0  0  0  0
  -10.8644   16.0907   71.0374 C   0  0  0  0  0  0  0  0  0  0  0  0
   -8.5330   18.4792   67.4604 C   0  0  0  0  0  0  0  0  0  0  0  0
   -9.5433   18.2987   69.9938 O   0  0  0  0  0  0  0  0  0  0  0  0
   -9.1481   16.2876   65.9124 O   0  0  0  0  0  0  0  0  0  0  0  0
  -10.7304   14.0247   66.8209 C   0  0  0  0  0  0  0  0  0  0  0  0
  -11.1003   13.0895   66.2465 N   0  0  0  0  0  0  0  0  0  0  0  0
   -7.0275   18.2876   67.7219 C   0  0  0  0  0  0  0  0  0  0  0  0
  -10.0126   16.3511   72.1395 C   0  0  0  0  0  0  0  0  0  0  0  0
  -10.4883   16.2212   73.4591 C   0  0  0  0  0  0  0  0  0  0  0  0
  -11.8103   15.8022   73.6966 C   0  0  0  0  0  0  0  0  0  0  0  0
  -12.6594   15.5153   72.6113 C   0  0  0  0  0  0  0  0  0  0  0  0
  -12.1896   15.6561   71.2886 C   0  0  0  0  0  0  0  0  0  0  0  0
  -12.3486   15.5799   75.3255 Cl  0  0  0  0  0  0  0  0  0  0  0  0
   -6.3899   19.0618   66.8364 O   0  0  0  0  0  0  0  0  0  0  0  0
   -6.5392   17.3329   68.2606 N   0  0  0  0  0  0  0  0  0  0  0  0
  -14.0271   15.0070   72.7871 O   0  0  0  0  0  0  0  0  0  0  0  0
   -5.1655   17.1464   68.4144 C   0  0  0  0  0  0  0  0  0  0  0  0
   -4.8632   15.8372   69.1031 C   0  0  0  0  0  0  0  0  0  0  0  0
   -3.5084   15.3604   68.9540 C   0  0  0  0  0  0  0  0  0  0  0  0
   -2.6022   16.1515   68.3374 C   0  0  0  0  0  0  0  0  0  0  0  0
   -2.9442   17.4176   67.7758 C   0  0  0  0  0  0  0  0  0  0  0  0
   -4.2464   17.7921   67.7829 C   0  0  0  0  0  0  0  0  0  0  0  0
  1  2  2  0
  1  6  1  0
  1 11  1  0
  2  3  1  0
  3  4  1  0
  3  7  1  0
  4  9  2  0
  4  5  1  0
  5  6  1  0
  5  8  1  0
  6 10  2  0
  8 13  1  0
 11 12  3  0
 16 19  1  0
 13 20  2  0
 13 21  1  0
 17 22  1  0
 21 23  1  0
 23 24  2  0
 24 25  1  0
 25 26  2  0
 26 27  1  0
 27 28  2  0
 28 23  1  0
  7 18  2  0
 18 17  1  0
 17 16  2  0
 16 15  1  0
 15 14  2  0
 14  7  1  0
M  END

$$$$
No_27-gen_results_new/Mpro_initial_molecule_p3/2024-06-19-20-31-25/
     RDKit          3D

 28 30  0  0  0  0  0  0  0  0999 V2000
  -10.3383   15.1532   67.5971 C   0  0  0  0  0  0  0  0  0  0  0  0
  -10.7220   15.1619   68.8301 N   0  0  0  0  0  0  0  0  0  0  0  0
  -10.4044   16.2024   69.6852 N   0  0  0  0  0  0  0  0  0  0  0  0
   -9.7271   17.3221   69.2607 C   0  0  0  0  0  0  0  0  0  0  0  0
   -9.3095   17.3212   67.9557 N   0  0  0  0  0  0  0  0  0  0  0  0
   -9.5450   16.2958   67.0814 C   0  0  0  0  0  0  0  0  0  0  0  0
  -10.8644   16.0907   71.0374 C   0  0  0  0  0  0  0  0  0  0  0  0
   -8.5330   18.4792   67.4604 C   0  0  0  0  0  0  0  0  0  0  0  0
   -9.5433   18.2987   69.9938 O   0  0  0  0  0  0  0  0  0  0  0  0
   -9.1481   16.2876   65.9124 O   0  0  0  0  0  0  0  0  0  0  0  0
  -10.7304   14.0247   66.8209 C   0  0  0  0  0  0  0  0  0  0  0  0
  -11.1003   13.0895   66.2465 N   0  0  0  0  0  0  0  0  0  0  0  0
   -7.0275   18.2876   67.7219 C   0  0  0  0  0  0  0  0  0  0  0  0
  -10.0126   16.3511   72.1395 C   0  0  0  0  0  0  0  0  0  0  0  0
  -10.4883   16.2212   73.4591 C   0  0  0  0  0  0  0  0  0  0  0  0
  -11.8103   15.8022   73.6966 C   0  0  0  0  0  0  0  0  0  0  0  0
  -12.6594   15.5153   72.6113 C   0  0  0  0  0  0  0  0  0  0  0  0
  -12.1896   15.6561   71.2886 C   0  0  0  0  0  0  0  0  0  0  0  0
  -12.2484   15.6088   75.0145 O   0  0  0  0  0  0  0  0  0  0  0  0
   -6.5341   17.3731   68.3686 C   0  0  0  0  0  0  0  0  0  0  0  0
   -5.1307   17.1884   68.5569 C   0  0  0  0  0  0  0  0  0  0  0  0
   -6.2283   19.1886   66.9090 C   0  0  0  0  0  0  0  0  0  0  0  0
   -4.8273   19.0035   67.0389 C   0  0  0  0  0  0  0  0  0  0  0  0
   -4.3060   18.0196   67.7978 C   0  0  0  0  0  0  0  0  0  0  0  0
  -12.3371   16.7921   75.7211 C   0  0  0  0  0  0  0  0  0  0  0  0
  -14.3006   14.8137   72.8434 Cl  0  0  0  0  0  0  0  0  0  0  0  0
   -6.8560   20.2665   66.0647 C   0  0  0  0  0  0  0  0  0  0  0  0
   -8.2869   20.3241   66.0075 N   0  0  0  0  0  0  0  0  0  0  0  0
  1  2  2  0
  1  6  1  0
  1 11  1  0
  2  3  1  0
  3  4  1  0
  3  7  1  0
  4  9  2  0
  4  5  1  0
  5  6  1  0
  5  8  1  0
  6 10  2  0
  8 13  1  0
 11 12  3  0
 16 19  1  0
 19 25  1  0
 17 26  1  0
 22 27  1  0
 27 28  1  0
 13 20  2  0
 20 21  1  0
 21 24  2  0
 24 23  1  0
 23 22  2  0
 22 13  1  0
  7 18  2  0
 18 17  1  0
 17 16  2  0
 16 15  1  0
 15 14  2  0
 14  7  1  0
M  END

$$$$
No_28-gen_results_new/Mpro_initial_molecule_p3/2024-06-19-20-31-25/
     RDKit          3D

 28 30  0  0  0  0  0  0  0  0999 V2000
  -10.3383   15.1532   67.5971 C   0  0  0  0  0  0  0  0  0  0  0  0
  -10.7220   15.1619   68.8301 N   0  0  0  0  0  0  0  0  0  0  0  0
  -10.4044   16.2024   69.6852 N   0  0  0  0  0  0  0  0  0  0  0  0
   -9.7271   17.3221   69.2607 C   0  0  0  0  0  0  0  0  0  0  0  0
   -9.3095   17.3212   67.9557 N   0  0  0  0  0  0  0  0  0  0  0  0
   -9.5450   16.2958   67.0814 C   0  0  0  0  0  0  0  0  0  0  0  0
  -10.8644   16.0907   71.0374 C   0  0  0  0  0  0  0  0  0  0  0  0
   -8.5330   18.4792   67.4604 C   0  0  0  0  0  0  0  0  0  0  0  0
   -9.5433   18.2987   69.9938 O   0  0  0  0  0  0  0  0  0  0  0  0
   -9.1481   16.2876   65.9124 O   0  0  0  0  0  0  0  0  0  0  0  0
  -10.7304   14.0247   66.8209 C   0  0  0  0  0  0  0  0  0  0  0  0
  -11.1003   13.0895   66.2465 N   0  0  0  0  0  0  0  0  0  0  0  0
   -7.0275   18.2876   67.7219 C   0  0  0  0  0  0  0  0  0  0  0  0
  -10.0126   16.3511   72.1395 C   0  0  0  0  0  0  0  0  0  0  0  0
  -10.4883   16.2212   73.4591 C   0  0  0  0  0  0  0  0  0  0  0  0
  -11.8103   15.8022   73.6966 C   0  0  0  0  0  0  0  0  0  0  0  0
  -12.6594   15.5153   72.6113 C   0  0  0  0  0  0  0  0  0  0  0  0
  -12.1896   15.6561   71.2886 C   0  0  0  0  0  0  0  0  0  0  0  0
  -12.3486   15.5799   75.3255 Cl  0  0  0  0  0  0  0  0  0  0  0  0
   -6.3058   19.3592   66.9157 C   0  0  0  0  0  0  0  0  0  0  0  0
   -4.9894   19.4433   66.9687 C   0  0  0  0  0  0  0  0  0  0  0  0
   -4.2885   20.4306   66.2890 C   0  0  0  0  0  0  0  0  0  0  0  0
   -4.9684   21.5146   65.8589 C   0  0  0  0  0  0  0  0  0  0  0  0
   -6.3744   21.4843   65.8347 C   0  0  0  0  0  0  0  0  0  0  0  0
   -7.0549   20.4513   66.4029 C   0  0  0  0  0  0  0  0  0  0  0  0
   -4.2057   22.5473   65.2377 O   0  0  0  0  0  0  0  0  0  0  0  0
  -14.1199   14.9551   72.8043 C   0  0  0  0  0  0  0  0  0  0  0  0
   -3.6196   22.4807   64.0912 C   0  0  0  0  0  0  0  0  0  0  0  0
  1  2  2  0
  1  6  1  0
  1 11  1  0
  2  3  1  0
  3  4  1  0
  3  7  1  0
  4  9  2  0
  4  5  1  0
  5  6  1  0
  5  8  1  0
  6 10  2  0
  8 13  1  0
 11 12  3  0
 16 19  1  0
 13 20  1  0
 23 26  1  0
 17 27  1  0
 26 28  1  0
 20 21  2  0
 21 22  1  0
 22 23  2  0
 23 24  1  0
 24 25  2  0
 25 20  1  0
  7 18  2  0
 18 17  1  0
 17 16  2  0
 16 15  1  0
 15 14  2  0
 14  7  1  0
M  END

$$$$
No_29-gen_results_new/Mpro_initial_molecule_p3/2024-06-19-20-31-25/
     RDKit          3D

 28 30  0  0  0  0  0  0  0  0999 V2000
  -10.3383   15.1532   67.5971 C   0  0  0  0  0  0  0  0  0  0  0  0
  -10.7220   15.1619   68.8301 N   0  0  0  0  0  0  0  0  0  0  0  0
  -10.4044   16.2024   69.6852 N   0  0  0  0  0  0  0  0  0  0  0  0
   -9.7271   17.3221   69.2607 C   0  0  0  0  0  0  0  0  0  0  0  0
   -9.3095   17.3212   67.9557 N   0  0  0  0  0  0  0  0  0  0  0  0
   -9.5450   16.2958   67.0814 C   0  0  0  0  0  0  0  0  0  0  0  0
  -10.8644   16.0907   71.0374 C   0  0  0  0  0  0  0  0  0  0  0  0
   -8.5330   18.4792   67.4604 C   0  0  0  0  0  0  0  0  0  0  0  0
   -9.5433   18.2987   69.9938 O   0  0  0  0  0  0  0  0  0  0  0  0
   -9.1481   16.2876   65.9124 O   0  0  0  0  0  0  0  0  0  0  0  0
  -10.7304   14.0247   66.8209 C   0  0  0  0  0  0  0  0  0  0  0  0
  -11.1003   13.0895   66.2465 N   0  0  0  0  0  0  0  0  0  0  0  0
   -7.0275   18.2876   67.7219 C   0  0  0  0  0  0  0  0  0  0  0  0
  -10.0126   16.3511   72.1395 C   0  0  0  0  0  0  0  0  0  0  0  0
  -10.4883   16.2212   73.4591 C   0  0  0  0  0  0  0  0  0  0  0  0
  -11.8103   15.8022   73.6966 C   0  0  0  0  0  0  0  0  0  0  0  0
  -12.6594   15.5153   72.6113 C   0  0  0  0  0  0  0  0  0  0  0  0
  -12.1896   15.6561   71.2886 C   0  0  0  0  0  0  0  0  0  0  0  0
  -12.3486   15.5799   75.3255 Cl  0  0  0  0  0  0  0  0  0  0  0  0
   -6.4523   19.3079   67.8835 C   0  0  0  0  0  0  0  0  0  0  0  0
   -4.9674   19.3665   67.8795 C   0  0  0  0  0  0  0  0  0  0  0  0
   -4.2474   20.6429   68.0405 C   0  0  0  0  0  0  0  0  0  0  0  0
   -2.7799   20.4585   67.8108 C   0  0  0  0  0  0  0  0  0  0  0  0
   -2.2370   19.1734   67.4842 C   0  0  0  0  0  0  0  0  0  0  0  0
   -3.0113   17.9909   67.3027 C   0  0  0  0  0  0  0  0  0  0  0  0
   -4.4023   18.1070   67.4917 C   0  0  0  0  0  0  0  0  0  0  0  0
  -14.1199   14.9552   72.8036 C   0  0  0  0  0  0  0  0  0  0  0  0
   -0.7255   19.0698   67.3576 C   0  0  0  0  0  0  0  0  0  0  0  0
  1  2  2  0
  1  6  1  0
  1 11  1  0
  2  3  1  0
  3  4  1  0
  3  7  1  0
  4  9  2  0
  4  5  1  0
  5  6  1  0
  5  8  1  0
  6 10  2  0
  8 13  1  0
 11 12  3  0
 16 19  1  0
 13 20  1  0
 20 21  1  0
 17 27  1  0
 24 28  1  0
  7 18  2  0
 18 17  1  0
 17 16  2  0
 16 15  1  0
 15 14  2  0
 14  7  1  0
 21 22  2  0
 22 23  1  0
 23 24  2  0
 24 25  1  0
 25 26  2  0
 26 21  1  0
M  END

$$$$
No_30-gen_results_new/Mpro_initial_molecule_p3/2024-06-19-20-31-25/
     RDKit          3D

 28 30  0  0  0  0  0  0  0  0999 V2000
  -10.3383   15.1532   67.5971 C   0  0  0  0  0  0  0  0  0  0  0  0
  -10.7220   15.1619   68.8301 N   0  0  0  0  0  0  0  0  0  0  0  0
  -10.4044   16.2024   69.6852 N   0  0  0  0  0  0  0  0  0  0  0  0
   -9.7271   17.3221   69.2607 C   0  0  0  0  0  0  0  0  0  0  0  0
   -9.3095   17.3212   67.9557 N   0  0  0  0  0  0  0  0  0  0  0  0
   -9.5450   16.2958   67.0814 C   0  0  0  0  0  0  0  0  0  0  0  0
  -10.8644   16.0907   71.0374 C   0  0  0  0  0  0  0  0  0  0  0  0
   -8.5330   18.4792   67.4604 C   0  0  0  0  0  0  0  0  0  0  0  0
   -9.5433   18.2987   69.9938 O   0  0  0  0  0  0  0  0  0  0  0  0
   -9.1481   16.2876   65.9124 O   0  0  0  0  0  0  0  0  0  0  0  0
  -10.7304   14.0247   66.8209 C   0  0  0  0  0  0  0  0  0  0  0  0
  -11.1003   13.0895   66.2465 N   0  0  0  0  0  0  0  0  0  0  0  0
   -7.0275   18.2876   67.7219 C   0  0  0  0  0  0  0  0  0  0  0  0
  -10.0126   16.3511   72.1395 C   0  0  0  0  0  0  0  0  0  0  0  0
  -10.4883   16.2212   73.4591 C   0  0  0  0  0  0  0  0  0  0  0  0
  -11.8103   15.8022   73.6966 C   0  0  0  0  0  0  0  0  0  0  0  0
  -12.6594   15.5153   72.6113 C   0  0  0  0  0  0  0  0  0  0  0  0
  -12.1896   15.6561   71.2886 C   0  0  0  0  0  0  0  0  0  0  0  0
  -12.2768   15.6000   75.1088 C   0  0  0  0  0  0  0  0  0  0  0  0
   -6.5341   17.3729   68.3685 C   0  0  0  0  0  0  0  0  0  0  0  0
   -5.1249   17.1827   68.5818 C   0  0  0  0  0  0  0  0  0  0  0  0
   -4.4393   18.0516   67.8378 C   0  0  0  0  0  0  0  0  0  0  0  0
   -4.8689   19.0478   67.0695 C   0  0  0  0  0  0  0  0  0  0  0  0
   -6.2627   19.1643   66.9261 C   0  0  0  0  0  0  0  0  0  0  0  0
  -11.9566   16.3202   75.9318 O   0  0  0  0  0  0  0  0  0  0  0  0
  -12.4658   14.3684   75.4139 O   0  0  0  0  0  0  0  0  0  0  0  0
  -14.3167   14.8658   72.8478 Cl  0  0  0  0  0  0  0  0  0  0  0  0
   -4.0889   19.9840   66.3109 C   0  0  0  0  0  0  0  0  0  0  0  0
  1  2  2  0
  1  6  1  0
  1 11  1  0
  2  3  1  0
  3  4  1  0
  3  7  1  0
  4  9  2  0
  4  5  1  0
  5  6  1  0
  5  8  1  0
  6 10  2  0
  8 13  1  0
 11 12  3  0
 16 19  1  0
 19 25  2  0
 19 26  1  0
 17 27  1  0
 23 28  1  0
 13 20  2  0
 20 21  1  0
 21 22  2  0
 22 23  1  0
 23 24  2  0
 24 13  1  0
  7 18  2  0
 18 17  1  0
 17 16  2  0
 16 15  1  0
 15 14  2  0
 14  7  1  0
M  END

$$$$
No_31-gen_results_new/Mpro_initial_molecule_p3/2024-06-19-20-31-25/
     RDKit          3D

 28 30  0  0  0  0  0  0  0  0999 V2000
  -10.3383   15.1532   67.5971 C   0  0  0  0  0  0  0  0  0  0  0  0
  -10.7220   15.1619   68.8301 N   0  0  0  0  0  0  0  0  0  0  0  0
  -10.4044   16.2024   69.6852 N   0  0  0  0  0  0  0  0  0  0  0  0
   -9.7271   17.3221   69.2607 C   0  0  0  0  0  0  0  0  0  0  0  0
   -9.3095   17.3212   67.9557 N   0  0  0  0  0  0  0  0  0  0  0  0
   -9.5450   16.2958   67.0814 C   0  0  0  0  0  0  0  0  0  0  0  0
  -10.8644   16.0907   71.0374 C   0  0  0  0  0  0  0  0  0  0  0  0
   -8.5330   18.4792   67.4604 C   0  0  0  0  0  0  0  0  0  0  0  0
   -9.5433   18.2987   69.9938 O   0  0  0  0  0  0  0  0  0  0  0  0
   -9.1481   16.2876   65.9124 O   0  0  0  0  0  0  0  0  0  0  0  0
  -10.7304   14.0247   66.8209 C   0  0  0  0  0  0  0  0  0  0  0  0
  -11.1003   13.0895   66.2465 N   0  0  0  0  0  0  0  0  0  0  0  0
   -7.0275   18.2876   67.7219 C   0  0  0  0  0  0  0  0  0  0  0  0
  -10.0126   16.3511   72.1395 C   0  0  0  0  0  0  0  0  0  0  0  0
  -10.4883   16.2212   73.4591 C   0  0  0  0  0  0  0  0  0  0  0  0
  -11.8103   15.8022   73.6966 C   0  0  0  0  0  0  0  0  0  0  0  0
  -12.6594   15.5153   72.6113 C   0  0  0  0  0  0  0  0  0  0  0  0
  -12.1896   15.6561   71.2886 C   0  0  0  0  0  0  0  0  0  0  0  0
  -12.3486   15.5799   75.3255 Cl  0  0  0  0  0  0  0  0  0  0  0  0
   -6.5344   17.3734   68.3696 C   0  0  0  0  0  0  0  0  0  0  0  0
   -5.1310   17.1884   68.5570 C   0  0  0  0  0  0  0  0  0  0  0  0
   -6.3132   19.4044   67.2937 C   0  0  0  0  0  0  0  0  0  0  0  0
   -4.9038   19.2886   67.4758 C   0  0  0  0  0  0  0  0  0  0  0  0
   -4.3512   18.1958   68.1015 C   0  0  0  0  0  0  0  0  0  0  0  0
   -4.0545   20.4399   67.0433 C   0  0  0  0  0  0  0  0  0  0  0  0
   -4.4182   21.5581   67.2615 O   0  0  0  0  0  0  0  0  0  0  0  0
   -2.8287   20.1728   66.6630 N   0  0  0  0  0  0  0  0  0  0  0  0
   -2.0458   21.1474   66.2257 C   0  0  0  0  0  0  0  0  0  0  0  0
  1  2  2  0
  1  6  1  0
  1 11  1  0
  2  3  1  0
  3  4  1  0
  3  7  1  0
  4  9  2  0
  4  5  1  0
  5  6  1  0
  5  8  1  0
  6 10  2  0
  8 13  1  0
 11 12  3  0
 16 19  1  0
 23 25  1  0
 25 26  2  0
 25 27  1  0
 27 28  1  0
 13 20  2  0
 20 21  1  0
 21 24  2  0
 24 23  1  0
 23 22  2  0
 22 13  1  0
  7 18  2  0
 18 17  1  0
 17 16  2  0
 16 15  1  0
 15 14  2  0
 14  7  1  0
M  END

$$$$
No_32-gen_results_new/Mpro_initial_molecule_p3/2024-06-19-20-31-25/
     RDKit          3D

 25 26  0  0  0  0  0  0  0  0999 V2000
  -10.3383   15.1532   67.5971 C   0  0  0  0  0  0  0  0  0  0  0  0
  -10.7220   15.1619   68.8301 N   0  0  0  0  0  0  0  0  0  0  0  0
  -10.4044   16.2024   69.6852 N   0  0  0  0  0  0  0  0  0  0  0  0
   -9.7271   17.3221   69.2607 C   0  0  0  0  0  0  0  0  0  0  0  0
   -9.3095   17.3212   67.9557 N   0  0  0  0  0  0  0  0  0  0  0  0
   -9.5450   16.2958   67.0814 C   0  0  0  0  0  0  0  0  0  0  0  0
  -10.8644   16.0907   71.0374 C   0  0  0  0  0  0  0  0  0  0  0  0
   -8.5330   18.4792   67.4604 C   0  0  0  0  0  0  0  0  0  0  0  0
   -9.5433   18.2987   69.9938 O   0  0  0  0  0  0  0  0  0  0  0  0
   -9.1481   16.2876   65.9124 O   0  0  0  0  0  0  0  0  0  0  0  0
  -10.7304   14.0247   66.8209 C   0  0  0  0  0  0  0  0  0  0  0  0
  -11.1003   13.0895   66.2465 N   0  0  0  0  0  0  0  0  0  0  0  0
   -7.0275   18.2876   67.7219 C   0  0  0  0  0  0  0  0  0  0  0  0
  -10.0126   16.3511   72.1395 C   0  0  0  0  0  0  0  0  0  0  0  0
  -10.4883   16.2212   73.4591 C   0  0  0  0  0  0  0  0  0  0  0  0
  -11.8103   15.8022   73.6966 C   0  0  0  0  0  0  0  0  0  0  0  0
  -12.6594   15.5153   72.6113 C   0  0  0  0  0  0  0  0  0  0  0  0
  -12.1896   15.6561   71.2886 C   0  0  0  0  0  0  0  0  0  0  0  0
  -12.3486   15.5799   75.3255 Cl  0  0  0  0  0  0  0  0  0  0  0  0
   -6.3058   19.3592   66.9157 C   0  0  0  0  0  0  0  0  0  0  0  0
   -5.0306   19.3685   67.0004 N   0  0  0  0  0  0  0  0  0  0  0  0
   -6.8783   20.2731   66.3134 O   0  0  0  0  0  0  0  0  0  0  0  0
   -4.1662   20.3230   66.4016 C   0  0  0  0  0  0  0  0  0  0  0  0
   -4.1072   21.3488   66.8933 C   0  0  0  0  0  0  0  0  0  0  0  0
   -3.3159   22.3653   66.0665 C   0  0  0  0  0  0  0  0  0  0  0  0
  1  2  2  0
  1  6  1  0
  1 11  1  0
  2  3  1  0
  3  4  1  0
  3  7  1  0
  4  9  2  0
  4  5  1  0
  5  6  1  0
  5  8  1  0
  6 10  2  0
  8 13  1  0
 11 12  3  0
 16 19  1  0
 13 20  1  0
 20 21  1  0
 20 22  2  0
 21 23  1  0
 23 24  1  0
 24 25  2  0
  7 18  2  0
 18 17  1  0
 17 16  2  0
 16 15  1  0
 15 14  2  0
 14  7  1  0
M  END

$$$$
No_33-gen_results_new/Mpro_initial_molecule_p3/2024-06-19-20-31-25/
     RDKit          3D

 28 30  0  0  0  0  0  0  0  0999 V2000
  -10.3383   15.1532   67.5971 C   0  0  0  0  0  0  0  0  0  0  0  0
  -10.7220   15.1619   68.8301 N   0  0  0  0  0  0  0  0  0  0  0  0
  -10.4044   16.2024   69.6852 N   0  0  0  0  0  0  0  0  0  0  0  0
   -9.7271   17.3221   69.2607 C   0  0  0  0  0  0  0  0  0  0  0  0
   -9.3095   17.3212   67.9557 N   0  0  0  0  0  0  0  0  0  0  0  0
   -9.5450   16.2958   67.0814 C   0  0  0  0  0  0  0  0  0  0  0  0
  -10.8644   16.0907   71.0374 C   0  0  0  0  0  0  0  0  0  0  0  0
   -8.5330   18.4792   67.4604 C   0  0  0  0  0  0  0  0  0  0  0  0
   -9.5433   18.2987   69.9938 O   0  0  0  0  0  0  0  0  0  0  0  0
   -9.1481   16.2876   65.9124 O   0  0  0  0  0  0  0  0  0  0  0  0
  -10.7304   14.0247   66.8209 C   0  0  0  0  0  0  0  0  0  0  0  0
  -11.1003   13.0895   66.2465 N   0  0  0  0  0  0  0  0  0  0  0  0
   -7.0275   18.2876   67.7219 C   0  0  0  0  0  0  0  0  0  0  0  0
  -10.0126   16.3511   72.1395 C   0  0  0  0  0  0  0  0  0  0  0  0
  -10.4883   16.2212   73.4591 C   0  0  0  0  0  0  0  0  0  0  0  0
  -11.8103   15.8022   73.6966 C   0  0  0  0  0  0  0  0  0  0  0  0
  -12.6594   15.5153   72.6113 C   0  0  0  0  0  0  0  0  0  0  0  0
  -12.1896   15.6561   71.2886 C   0  0  0  0  0  0  0  0  0  0  0  0
  -12.2768   15.6000   75.1088 C   0  0  0  0  0  0  0  0  0  0  0  0
   -6.4522   19.3092   67.8826 C   0  0  0  0  0  0  0  0  0  0  0  0
  -12.3537   14.5923   75.5994 O   0  0  0  0  0  0  0  0  0  0  0  0
  -12.1998   16.7295   75.8921 N   0  0  0  0  0  0  0  0  0  0  0  0
   -4.9616   19.3658   67.8959 C   0  0  0  0  0  0  0  0  0  0  0  0
   -4.3065   18.1829   67.6990 C   0  0  0  0  0  0  0  0  0  0  0  0
   -5.0532   16.9673   67.4661 C   0  0  0  0  0  0  0  0  0  0  0  0
   -6.4952   17.0422   67.4090 C   0  0  0  0  0  0  0  0  0  0  0  0
   -4.2737   20.4835   68.1999 O   0  0  0  0  0  0  0  0  0  0  0  0
   -2.9391   20.4185   67.9979 C   0  0  0  0  0  0  0  0  0  0  0  0
  1  2  2  0
  1  6  1  0
  1 11  1  0
  2  3  1  0
  3  4  1  0
  3  7  1  0
  4  9  2  0
  4  5  1  0
  5  6  1  0
  5  8  1  0
  6 10  2  0
  8 13  1  0
 11 12  3  0
 16 19  1  0
 19 21  2  0
 19 22  1  0
 23 27  1  0
 27 28  1  0
 13 20  2  0
 20 23  1  0
 23 24  2  0
 24 25  1  0
 25 26  2  0
 26 13  1  0
  7 18  2  0
 18 17  1  0
 17 16  2  0
 16 15  1  0
 15 14  2  0
 14  7  1  0
M  END

$$$$
No_34-gen_results_new/Mpro_initial_molecule_p3/2024-06-19-20-31-25/
     RDKit          3D

 28 30  0  0  0  0  0  0  0  0999 V2000
  -10.3383   15.1532   67.5971 C   0  0  0  0  0  0  0  0  0  0  0  0
  -10.7220   15.1619   68.8301 N   0  0  0  0  0  0  0  0  0  0  0  0
  -10.4044   16.2024   69.6852 N   0  0  0  0  0  0  0  0  0  0  0  0
   -9.7271   17.3221   69.2607 C   0  0  0  0  0  0  0  0  0  0  0  0
   -9.3095   17.3212   67.9557 N   0  0  0  0  0  0  0  0  0  0  0  0
   -9.5450   16.2958   67.0814 C   0  0  0  0  0  0  0  0  0  0  0  0
  -10.8644   16.0907   71.0374 C   0  0  0  0  0  0  0  0  0  0  0  0
   -8.5330   18.4792   67.4604 C   0  0  0  0  0  0  0  0  0  0  0  0
   -9.5433   18.2987   69.9938 O   0  0  0  0  0  0  0  0  0  0  0  0
   -9.1481   16.2876   65.9124 O   0  0  0  0  0  0  0  0  0  0  0  0
  -10.7304   14.0247   66.8209 C   0  0  0  0  0  0  0  0  0  0  0  0
  -11.1003   13.0895   66.2465 N   0  0  0  0  0  0  0  0  0  0  0  0
   -7.0275   18.2876   67.7219 C   0  0  0  0  0  0  0  0  0  0  0  0
  -10.0126   16.3511   72.1395 C   0  0  0  0  0  0  0  0  0  0  0  0
  -10.4883   16.2212   73.4591 C   0  0  0  0  0  0  0  0  0  0  0  0
  -11.8103   15.8022   73.6966 C   0  0  0  0  0  0  0  0  0  0  0  0
  -12.6594   15.5153   72.6113 C   0  0  0  0  0  0  0  0  0  0  0  0
  -12.1896   15.6561   71.2886 C   0  0  0  0  0  0  0  0  0  0  0  0
  -12.3486   15.5799   75.3255 Cl  0  0  0  0  0  0  0  0  0  0  0  0
   -6.5558   17.2018   67.9045 O   0  0  0  0  0  0  0  0  0  0  0  0
   -6.4130   19.3147   68.0692 N   0  0  0  0  0  0  0  0  0  0  0  0
   -4.9879   19.3264   68.2155 C   0  0  0  0  0  0  0  0  0  0  0  0
   -4.3589   20.6802   68.2943 C   0  0  0  0  0  0  0  0  0  0  0  0
   -3.6895   21.0627   67.2079 C   0  0  0  0  0  0  0  0  0  0  0  0
   -3.9680   20.9461   66.1413 C   0  0  0  0  0  0  0  0  0  0  0  0
   -4.4551   19.4733   65.8150 C   0  0  0  0  0  0  0  0  0  0  0  0
   -4.9015   18.7258   66.8460 C   0  0  0  0  0  0  0  0  0  0  0  0
   -3.4314   21.5982   64.8715 C   0  0  0  0  0  0  0  0  0  0  0  0
  1  2  2  0
  1  6  1  0
  1 11  1  0
  2  3  1  0
  3  4  1  0
  3  7  1  0
  4  9  2  0
  4  5  1  0
  5  6  1  0
  5  8  1  0
  6 10  2  0
  8 13  1  0
 11 12  3  0
 16 19  1  0
 13 20  2  0
 13 21  1  0
 21 22  1  0
 25 28  1  0
 22 23  2  0
 23 24  1  0
 24 25  2  0
 25 26  1  0
 26 27  2  0
 27 22  1  0
  7 18  2  0
 18 17  1  0
 17 16  2  0
 16 15  1  0
 15 14  2  0
 14  7  1  0
M  END

$$$$
No_35-gen_results_new/Mpro_initial_molecule_p3/2024-06-19-20-31-25/
     RDKit          3D

 28 30  0  0  0  0  0  0  0  0999 V2000
  -10.3383   15.1532   67.5971 C   0  0  0  0  0  0  0  0  0  0  0  0
  -10.7220   15.1619   68.8301 N   0  0  0  0  0  0  0  0  0  0  0  0
  -10.4044   16.2024   69.6852 N   0  0  0  0  0  0  0  0  0  0  0  0
   -9.7271   17.3221   69.2607 C   0  0  0  0  0  0  0  0  0  0  0  0
   -9.3095   17.3212   67.9557 N   0  0  0  0  0  0  0  0  0  0  0  0
   -9.5450   16.2958   67.0814 C   0  0  0  0  0  0  0  0  0  0  0  0
  -10.8644   16.0907   71.0374 C   0  0  0  0  0  0  0  0  0  0  0  0
   -8.5330   18.4792   67.4604 C   0  0  0  0  0  0  0  0  0  0  0  0
   -9.5433   18.2987   69.9938 O   0  0  0  0  0  0  0  0  0  0  0  0
   -9.1481   16.2876   65.9124 O   0  0  0  0  0  0  0  0  0  0  0  0
  -10.7304   14.0247   66.8209 C   0  0  0  0  0  0  0  0  0  0  0  0
  -11.1003   13.0895   66.2465 N   0  0  0  0  0  0  0  0  0  0  0  0
   -7.0275   18.2876   67.7219 C   0  0  0  0  0  0  0  0  0  0  0  0
  -10.0126   16.3511   72.1395 C   0  0  0  0  0  0  0  0  0  0  0  0
  -10.4883   16.2212   73.4591 C   0  0  0  0  0  0  0  0  0  0  0  0
  -11.8103   15.8022   73.6966 C   0  0  0  0  0  0  0  0  0  0  0  0
  -12.6594   15.5153   72.6113 C   0  0  0  0  0  0  0  0  0  0  0  0
  -12.1896   15.6561   71.2886 C   0  0  0  0  0  0  0  0  0  0  0  0
  -12.2484   15.6088   75.0145 O   0  0  0  0  0  0  0  0  0  0  0  0
   -6.3059   19.3591   66.9155 C   0  0  0  0  0  0  0  0  0  0  0  0
   -7.0074   20.0377   66.0776 C   0  0  0  0  0  0  0  0  0  0  0  0
   -8.3359   20.2278   65.8967 C   0  0  0  0  0  0  0  0  0  0  0  0
   -9.1793   19.1604   66.4350 C   0  0  0  0  0  0  0  0  0  0  0  0
   -6.1611   21.0518   65.4188 O   0  0  0  0  0  0  0  0  0  0  0  0
  -12.3398   16.7911   75.7222 C   0  0  0  0  0  0  0  0  0  0  0  0
  -13.9472   14.9727   72.7884 F   0  0  0  0  0  0  0  0  0  0  0  0
   -4.9953   19.3910   67.1681 O   0  0  0  0  0  0  0  0  0  0  0  0
   -4.5462   19.5658   68.3873 C   0  0  0  0  0  0  0  0  0  0  0  0
  1  2  2  0
  1  6  1  0
  1 11  1  0
  2  3  1  0
  3  4  1  0
  3  7  1  0
  4  9  2  0
  4  5  1  0
  5  6  1  0
  5  8  1  0
  6 10  2  0
 11 12  3  0
 16 19  1  0
 21 24  1  0
 19 25  1  0
 17 26  1  0
 20 27  1  0
 27 28  1  0
  8 13  2  0
 13 20  1  0
 20 21  2  0
 21 22  1  0
 22 23  2  0
 23  8  1  0
  7 18  2  0
 18 17  1  0
 17 16  2  0
 16 15  1  0
 15 14  2  0
 14  7  1  0
M  END

$$$$
No_36-gen_results_new/Mpro_initial_molecule_p3/2024-06-19-20-31-25/
     RDKit          3D

 28 30  0  0  0  0  0  0  0  0999 V2000
  -10.3383   15.1532   67.5971 C   0  0  0  0  0  0  0  0  0  0  0  0
  -10.7220   15.1619   68.8301 N   0  0  0  0  0  0  0  0  0  0  0  0
  -10.4044   16.2024   69.6852 N   0  0  0  0  0  0  0  0  0  0  0  0
   -9.7271   17.3221   69.2607 C   0  0  0  0  0  0  0  0  0  0  0  0
   -9.3095   17.3212   67.9557 N   0  0  0  0  0  0  0  0  0  0  0  0
   -9.5450   16.2958   67.0814 C   0  0  0  0  0  0  0  0  0  0  0  0
  -10.8644   16.0907   71.0374 C   0  0  0  0  0  0  0  0  0  0  0  0
   -8.5330   18.4792   67.4604 C   0  0  0  0  0  0  0  0  0  0  0  0
   -9.5433   18.2987   69.9938 O   0  0  0  0  0  0  0  0  0  0  0  0
   -9.1481   16.2876   65.9124 O   0  0  0  0  0  0  0  0  0  0  0  0
  -10.7304   14.0247   66.8209 C   0  0  0  0  0  0  0  0  0  0  0  0
  -11.1003   13.0895   66.2465 N   0  0  0  0  0  0  0  0  0  0  0  0
   -7.0275   18.2876   67.7219 C   0  0  0  0  0  0  0  0  0  0  0  0
  -10.0126   16.3511   72.1395 C   0  0  0  0  0  0  0  0  0  0  0  0
  -10.4883   16.2212   73.4591 C   0  0  0  0  0  0  0  0  0  0  0  0
  -11.8103   15.8022   73.6966 C   0  0  0  0  0  0  0  0  0  0  0  0
  -12.6594   15.5153   72.6113 C   0  0  0  0  0  0  0  0  0  0  0  0
  -12.1896   15.6561   71.2886 C   0  0  0  0  0  0  0  0  0  0  0  0
  -12.2484   15.6088   75.0145 O   0  0  0  0  0  0  0  0  0  0  0  0
   -6.4522   19.3083   67.8828 C   0  0  0  0  0  0  0  0  0  0  0  0
   -4.9672   19.3668   67.8788 C   0  0  0  0  0  0  0  0  0  0  0  0
   -4.2474   20.6434   68.0390 C   0  0  0  0  0  0  0  0  0  0  0  0
   -3.5696   21.1031   67.0346 C   0  0  0  0  0  0  0  0  0  0  0  0
   -2.7137   21.9328   66.7976 C   0  0  0  0  0  0  0  0  0  0  0  0
   -2.2431   22.4784   65.5350 C   0  0  0  0  0  0  0  0  0  0  0  0
   -3.0176   22.1434   64.5867 C   0  0  0  0  0  0  0  0  0  0  0  0
   -4.1528   21.3092   64.5222 C   0  0  0  0  0  0  0  0  0  0  0  0
   -4.5091   20.8206   65.8040 C   0  0  0  0  0  0  0  0  0  0  0  0
  1  2  2  0
  1  6  1  0
  1 11  1  0
  2  3  1  0
  3  4  1  0
  3  7  1  0
  4  9  2  0
  4  5  1  0
  5  6  1  0
  5  8  1  0
  6 10  2  0
  8 13  1  0
 11 12  3  0
 16 19  1  0
 13 20  1  0
 20 21  1  0
 21 22  1  0
 22 23  1  0
 23 24  2  0
 24 25  1  0
 25 26  2  0
 26 27  1  0
 27 28  2  0
 28 23  1  0
  7 18  2  0
 18 17  1  0
 17 16  2  0
 16 15  1  0
 15 14  2  0
 14  7  1  0
M  END

$$$$
No_37-gen_results_new/Mpro_initial_molecule_p3/2024-06-19-20-31-25/
     RDKit          3D

 28 30  0  0  0  0  0  0  0  0999 V2000
  -10.3383   15.1532   67.5971 C   0  0  0  0  0  0  0  0  0  0  0  0
  -10.7220   15.1619   68.8301 N   0  0  0  0  0  0  0  0  0  0  0  0
  -10.4044   16.2024   69.6852 N   0  0  0  0  0  0  0  0  0  0  0  0
   -9.7271   17.3221   69.2607 C   0  0  0  0  0  0  0  0  0  0  0  0
   -9.3095   17.3212   67.9557 N   0  0  0  0  0  0  0  0  0  0  0  0
   -9.5450   16.2958   67.0814 C   0  0  0  0  0  0  0  0  0  0  0  0
  -10.8644   16.0907   71.0374 C   0  0  0  0  0  0  0  0  0  0  0  0
   -8.5330   18.4792   67.4604 C   0  0  0  0  0  0  0  0  0  0  0  0
   -9.5433   18.2987   69.9938 O   0  0  0  0  0  0  0  0  0  0  0  0
   -9.1481   16.2876   65.9124 O   0  0  0  0  0  0  0  0  0  0  0  0
  -10.7304   14.0247   66.8209 C   0  0  0  0  0  0  0  0  0  0  0  0
  -11.1003   13.0895   66.2465 N   0  0  0  0  0  0  0  0  0  0  0  0
   -7.0275   18.2876   67.7219 C   0  0  0  0  0  0  0  0  0  0  0  0
  -10.0126   16.3511   72.1395 C   0  0  0  0  0  0  0  0  0  0  0  0
  -10.4883   16.2212   73.4591 C   0  0  0  0  0  0  0  0  0  0  0  0
  -11.8103   15.8022   73.6966 C   0  0  0  0  0  0  0  0  0  0  0  0
  -12.6594   15.5153   72.6113 C   0  0  0  0  0  0  0  0  0  0  0  0
  -12.1896   15.6561   71.2886 C   0  0  0  0  0  0  0  0  0  0  0  0
  -12.2768   15.6000   75.1088 C   0  0  0  0  0  0  0  0  0  0  0  0
   -6.5341   17.3729   68.3685 C   0  0  0  0  0  0  0  0  0  0  0  0
   -5.1308   17.1882   68.5568 C   0  0  0  0  0  0  0  0  0  0  0  0
   -6.2282   19.1886   66.9092 C   0  0  0  0  0  0  0  0  0  0  0  0
   -4.8273   19.0035   67.0391 C   0  0  0  0  0  0  0  0  0  0  0  0
   -4.3060   18.0195   67.7979 C   0  0  0  0  0  0  0  0  0  0  0  0
  -12.3528   14.5927   75.5997 O   0  0  0  0  0  0  0  0  0  0  0  0
  -12.4213   16.7487   75.8003 N   0  0  0  0  0  0  0  0  0  0  0  0
   -6.7604   20.1930   66.1161 O   0  0  0  0  0  0  0  0  0  0  0  0
   -4.6527   16.1687   69.3351 F   0  0  0  0  0  0  0  0  0  0  0  0
  1  2  2  0
  1  6  1  0
  1 11  1  0
  2  3  1  0
  3  4  1  0
  3  7  1  0
  4  9  2  0
  4  5  1  0
  5  6  1  0
  5  8  1  0
  6 10  2  0
  8 13  1  0
 11 12  3  0
 16 19  1  0
 19 25  2  0
 19 26  1  0
 22 27  1  0
 21 28  1  0
 13 20  2  0
 20 21  1  0
 21 24  2  0
 24 23  1  0
 23 22  2  0
 22 13  1  0
  7 18  2  0
 18 17  1  0
 17 16  2  0
 16 15  1  0
 15 14  2  0
 14  7  1  0
M  END

$$$$
No_38-gen_results_new/Mpro_initial_molecule_p3/2024-06-19-20-31-25/
     RDKit          3D

 28 30  0  0  0  0  0  0  0  0999 V2000
  -10.3383   15.1532   67.5971 C   0  0  0  0  0  0  0  0  0  0  0  0
  -10.7220   15.1619   68.8301 N   0  0  0  0  0  0  0  0  0  0  0  0
  -10.4044   16.2024   69.6852 N   0  0  0  0  0  0  0  0  0  0  0  0
   -9.7271   17.3221   69.2607 C   0  0  0  0  0  0  0  0  0  0  0  0
   -9.3095   17.3212   67.9557 N   0  0  0  0  0  0  0  0  0  0  0  0
   -9.5450   16.2958   67.0814 C   0  0  0  0  0  0  0  0  0  0  0  0
  -10.8644   16.0907   71.0374 C   0  0  0  0  0  0  0  0  0  0  0  0
   -8.5330   18.4792   67.4604 C   0  0  0  0  0  0  0  0  0  0  0  0
   -9.5433   18.2987   69.9938 O   0  0  0  0  0  0  0  0  0  0  0  0
   -9.1481   16.2876   65.9124 O   0  0  0  0  0  0  0  0  0  0  0  0
  -10.7304   14.0247   66.8209 C   0  0  0  0  0  0  0  0  0  0  0  0
  -11.1003   13.0895   66.2465 N   0  0  0  0  0  0  0  0  0  0  0  0
   -7.0275   18.2876   67.7219 C   0  0  0  0  0  0  0  0  0  0  0  0
  -10.0126   16.3511   72.1395 C   0  0  0  0  0  0  0  0  0  0  0  0
  -10.4883   16.2212   73.4591 C   0  0  0  0  0  0  0  0  0  0  0  0
  -11.8103   15.8022   73.6966 C   0  0  0  0  0  0  0  0  0  0  0  0
  -12.6594   15.5153   72.6113 C   0  0  0  0  0  0  0  0  0  0  0  0
  -12.1896   15.6561   71.2886 C   0  0  0  0  0  0  0  0  0  0  0  0
  -12.2768   15.6000   75.1088 C   0  0  0  0  0  0  0  0  0  0  0  0
   -6.3059   19.3590   66.9154 C   0  0  0  0  0  0  0  0  0  0  0  0
   -4.9893   19.4432   66.9685 C   0  0  0  0  0  0  0  0  0  0  0  0
   -4.2885   20.4304   66.2887 C   0  0  0  0  0  0  0  0  0  0  0  0
   -5.1758   21.3406   65.8622 C   0  0  0  0  0  0  0  0  0  0  0  0
   -4.2295   22.7465   65.0862 Cl  0  0  0  0  0  0  0  0  0  0  0  0
   -7.0237   20.3822   66.2300 C   0  0  0  0  0  0  0  0  0  0  0  0
   -6.3967   21.3589   65.6540 C   0  0  0  0  0  0  0  0  0  0  0  0
  -12.5807   16.5952   75.6959 O   0  0  0  0  0  0  0  0  0  0  0  0
  -12.1194   14.5201   75.6003 O   0  0  0  0  0  0  0  0  0  0  0  0
  1  2  2  0
  1  6  1  0
  1 11  1  0
  2  3  1  0
  3  4  1  0
  3  7  1  0
  4  9  2  0
  4  5  1  0
  5  6  1  0
  5  8  1  0
  6 10  2  0
  8 13  1  0
 11 12  3  0
 16 19  1  0
 13 20  1  0
 23 24  1  0
 19 27  2  0
 19 28  1  0
 20 21  2  0
 21 22  1  0
 22 23  2  0
 23 26  1  0
 26 25  2  0
 25 20  1  0
  7 18  2  0
 18 17  1  0
 17 16  2  0
 16 15  1  0
 15 14  2  0
 14  7  1  0
M  END

$$$$
No_39-gen_results_new/Mpro_initial_molecule_p3/2024-06-19-20-31-25/
     RDKit          3D

 28 30  0  0  0  0  0  0  0  0999 V2000
  -10.3383   15.1532   67.5971 C   0  0  0  0  0  0  0  0  0  0  0  0
  -10.7220   15.1619   68.8301 N   0  0  0  0  0  0  0  0  0  0  0  0
  -10.4044   16.2024   69.6852 N   0  0  0  0  0  0  0  0  0  0  0  0
   -9.7271   17.3221   69.2607 C   0  0  0  0  0  0  0  0  0  0  0  0
   -9.3095   17.3212   67.9557 N   0  0  0  0  0  0  0  0  0  0  0  0
   -9.5450   16.2958   67.0814 C   0  0  0  0  0  0  0  0  0  0  0  0
  -10.8644   16.0907   71.0374 C   0  0  0  0  0  0  0  0  0  0  0  0
   -8.5330   18.4792   67.4604 C   0  0  0  0  0  0  0  0  0  0  0  0
   -9.5433   18.2987   69.9938 O   0  0  0  0  0  0  0  0  0  0  0  0
   -9.1481   16.2876   65.9124 O   0  0  0  0  0  0  0  0  0  0  0  0
  -10.7304   14.0247   66.8209 C   0  0  0  0  0  0  0  0  0  0  0  0
  -11.1003   13.0895   66.2465 N   0  0  0  0  0  0  0  0  0  0  0  0
   -7.0275   18.2876   67.7219 C   0  0  0  0  0  0  0  0  0  0  0  0
  -10.0126   16.3511   72.1395 C   0  0  0  0  0  0  0  0  0  0  0  0
  -10.4883   16.2212   73.4591 C   0  0  0  0  0  0  0  0  0  0  0  0
  -11.8103   15.8022   73.6966 C   0  0  0  0  0  0  0  0  0  0  0  0
  -12.6594   15.5153   72.6113 C   0  0  0  0  0  0  0  0  0  0  0  0
  -12.1896   15.6561   71.2886 C   0  0  0  0  0  0  0  0  0  0  0  0
  -12.2484   15.6088   75.0145 O   0  0  0  0  0  0  0  0  0  0  0  0
   -6.3059   19.3591   66.9155 C   0  0  0  0  0  0  0  0  0  0  0  0
   -4.9923   19.4463   66.9703 C   0  0  0  0  0  0  0  0  0  0  0  0
   -4.2907   20.4330   66.2898 C   0  0  0  0  0  0  0  0  0  0  0  0
   -4.9709   21.5154   65.8584 C   0  0  0  0  0  0  0  0  0  0  0  0
   -6.3875   21.4522   65.7832 C   0  0  0  0  0  0  0  0  0  0  0  0
   -7.0587   20.4371   66.3781 C   0  0  0  0  0  0  0  0  0  0  0  0
   -4.2108   22.5415   65.2151 O   0  0  0  0  0  0  0  0  0  0  0  0
  -12.3386   16.7900   75.7237 C   0  0  0  0  0  0  0  0  0  0  0  0
  -13.9747   14.9549   72.7920 O   0  0  0  0  0  0  0  0  0  0  0  0
  1  2  2  0
  1  6  1  0
  1 11  1  0
  2  3  1  0
  3  4  1  0
  3  7  1  0
  4  9  2  0
  4  5  1  0
  5  6  1  0
  5  8  1  0
  6 10  2  0
  8 13  1  0
 11 12  3  0
 16 19  1  0
 13 20  1  0
 23 26  1  0
 19 27  1  0
 17 28  1  0
 20 21  2  0
 21 22  1  0
 22 23  2  0
 23 24  1  0
 24 25  2  0
 25 20  1  0
  7 18  2  0
 18 17  1  0
 17 16  2  0
 16 15  1  0
 15 14  2  0
 14  7  1  0
M  END

$$$$
No_40-gen_results_new/Mpro_initial_molecule_p3/2024-06-19-20-31-25/
     RDKit          3D

 28 30  0  0  0  0  0  0  0  0999 V2000
  -10.3383   15.1532   67.5971 C   0  0  0  0  0  0  0  0  0  0  0  0
  -10.7220   15.1619   68.8301 N   0  0  0  0  0  0  0  0  0  0  0  0
  -10.4044   16.2024   69.6852 N   0  0  0  0  0  0  0  0  0  0  0  0
   -9.7271   17.3221   69.2607 C   0  0  0  0  0  0  0  0  0  0  0  0
   -9.3095   17.3212   67.9557 N   0  0  0  0  0  0  0  0  0  0  0  0
   -9.5450   16.2958   67.0814 C   0  0  0  0  0  0  0  0  0  0  0  0
  -10.8644   16.0907   71.0374 C   0  0  0  0  0  0  0  0  0  0  0  0
   -8.5330   18.4792   67.4604 C   0  0  0  0  0  0  0  0  0  0  0  0
   -9.5433   18.2987   69.9938 O   0  0  0  0  0  0  0  0  0  0  0  0
   -9.1481   16.2876   65.9124 O   0  0  0  0  0  0  0  0  0  0  0  0
  -10.7304   14.0247   66.8209 C   0  0  0  0  0  0  0  0  0  0  0  0
  -11.1003   13.0895   66.2465 N   0  0  0  0  0  0  0  0  0  0  0  0
   -7.0275   18.2876   67.7219 C   0  0  0  0  0  0  0  0  0  0  0  0
  -10.0126   16.3511   72.1395 C   0  0  0  0  0  0  0  0  0  0  0  0
  -10.4883   16.2212   73.4591 C   0  0  0  0  0  0  0  0  0  0  0  0
  -11.8103   15.8022   73.6966 C   0  0  0  0  0  0  0  0  0  0  0  0
  -12.6594   15.5153   72.6113 C   0  0  0  0  0  0  0  0  0  0  0  0
  -12.1896   15.6561   71.2886 C   0  0  0  0  0  0  0  0  0  0  0  0
  -12.3486   15.5799   75.3255 Cl  0  0  0  0  0  0  0  0  0  0  0  0
   -6.5558   17.2018   67.9045 O   0  0  0  0  0  0  0  0  0  0  0  0
   -6.4130   19.3147   68.0692 N   0  0  0  0  0  0  0  0  0  0  0  0
   -4.9880   19.3264   68.2155 C   0  0  0  0  0  0  0  0  0  0  0  0
   -4.6408   19.3966   69.5241 C   0  0  0  0  0  0  0  0  0  0  0  0
   -3.8737   19.0539   70.1126 C   0  0  0  0  0  0  0  0  0  0  0  0
   -3.5946   19.3294   71.4190 F   0  0  0  0  0  0  0  0  0  0  0  0
   -2.9840   17.9587   69.5145 C   0  0  0  0  0  0  0  0  0  0  0  0
   -4.1844   18.4326   67.5549 C   0  0  0  0  0  0  0  0  0  0  0  0
   -3.1111   17.8021   68.1653 C   0  0  0  0  0  0  0  0  0  0  0  0
  1  2  2  0
  1  6  1  0
  1 11  1  0
  2  3  1  0
  3  4  1  0
  3  7  1  0
  4  9  2  0
  4  5  1  0
  5  6  1  0
  5  8  1  0
  6 10  2  0
  8 13  1  0
 11 12  3  0
 16 19  1  0
 13 20  2  0
 13 21  1  0
 21 22  1  0
 24 25  1  0
 22 23  2  0
 23 24  1  0
 24 26  2  0
 26 28  1  0
 28 27  2  0
 27 22  1  0
  7 18  2  0
 18 17  1  0
 17 16  2  0
 16 15  1  0
 15 14  2  0
 14  7  1  0
M  END

$$$$
No_41-gen_results_new/Mpro_initial_molecule_p3/2024-06-19-20-31-25/
     RDKit          3D

 28 30  0  0  0  0  0  0  0  0999 V2000
  -10.3383   15.1532   67.5971 C   0  0  0  0  0  0  0  0  0  0  0  0
  -10.7220   15.1619   68.8301 N   0  0  0  0  0  0  0  0  0  0  0  0
  -10.4044   16.2024   69.6852 N   0  0  0  0  0  0  0  0  0  0  0  0
   -9.7271   17.3221   69.2607 C   0  0  0  0  0  0  0  0  0  0  0  0
   -9.3095   17.3212   67.9557 N   0  0  0  0  0  0  0  0  0  0  0  0
   -9.5450   16.2958   67.0814 C   0  0  0  0  0  0  0  0  0  0  0  0
  -10.8644   16.0907   71.0374 C   0  0  0  0  0  0  0  0  0  0  0  0
   -8.5330   18.4792   67.4604 C   0  0  0  0  0  0  0  0  0  0  0  0
   -9.5433   18.2987   69.9938 O   0  0  0  0  0  0  0  0  0  0  0  0
   -9.1481   16.2876   65.9124 O   0  0  0  0  0  0  0  0  0  0  0  0
  -10.7304   14.0247   66.8209 C   0  0  0  0  0  0  0  0  0  0  0  0
  -11.1003   13.0895   66.2465 N   0  0  0  0  0  0  0  0  0  0  0  0
   -7.0275   18.2876   67.7219 C   0  0  0  0  0  0  0  0  0  0  0  0
  -10.0126   16.3511   72.1395 C   0  0  0  0  0  0  0  0  0  0  0  0
  -10.4883   16.2212   73.4591 C   0  0  0  0  0  0  0  0  0  0  0  0
  -11.8103   15.8022   73.6966 C   0  0  0  0  0  0  0  0  0  0  0  0
  -12.6594   15.5153   72.6113 C   0  0  0  0  0  0  0  0  0  0  0  0
  -12.1896   15.6561   71.2886 C   0  0  0  0  0  0  0  0  0  0  0  0
  -12.2768   15.6000   75.1088 C   0  0  0  0  0  0  0  0  0  0  0  0
   -6.3059   19.3590   66.9154 C   0  0  0  0  0  0  0  0  0  0  0  0
   -4.9893   19.4432   66.9685 C   0  0  0  0  0  0  0  0  0  0  0  0
   -4.2885   20.4305   66.2887 C   0  0  0  0  0  0  0  0  0  0  0  0
   -4.9684   21.5145   65.8586 C   0  0  0  0  0  0  0  0  0  0  0  0
   -6.3744   21.4842   65.8345 C   0  0  0  0  0  0  0  0  0  0  0  0
   -7.0549   20.4513   66.4027 C   0  0  0  0  0  0  0  0  0  0  0  0
  -11.4721   15.7228   75.8941 F   0  0  0  0  0  0  0  0  0  0  0  0
  -13.1946   16.5165   75.3389 F   0  0  0  0  0  0  0  0  0  0  0  0
  -12.9293   14.3656   75.0441 F   0  0  0  0  0  0  0  0  0  0  0  0
  1  2  2  0
  1  6  1  0
  1 11  1  0
  2  3  1  0
  3  4  1  0
  3  7  1  0
  4  9  2  0
  4  5  1  0
  5  6  1  0
  5  8  1  0
  6 10  2  0
  8 13  1  0
 11 12  3  0
 16 19  1  0
 13 20  1  0
 19 26  1  0
 19 27  1  0
 19 28  1  0
 20 21  2  0
 21 22  1  0
 22 23  2  0
 23 24  1  0
 24 25  2  0
 25 20  1  0
  7 18  2  0
 18 17  1  0
 17 16  2  0
 16 15  1  0
 15 14  2  0
 14  7  1  0
M  END

$$$$
No_42-gen_results_new/Mpro_initial_molecule_p3/2024-06-19-20-31-25/
     RDKit          3D

 26 28  0  0  0  0  0  0  0  0999 V2000
  -10.3383   15.1532   67.5971 C   0  0  0  0  0  0  0  0  0  0  0  0
  -10.7220   15.1619   68.8301 N   0  0  0  0  0  0  0  0  0  0  0  0
  -10.4044   16.2024   69.6852 N   0  0  0  0  0  0  0  0  0  0  0  0
   -9.7271   17.3221   69.2607 C   0  0  0  0  0  0  0  0  0  0  0  0
   -9.3095   17.3212   67.9557 N   0  0  0  0  0  0  0  0  0  0  0  0
   -9.5450   16.2958   67.0814 C   0  0  0  0  0  0  0  0  0  0  0  0
  -10.8644   16.0907   71.0374 C   0  0  0  0  0  0  0  0  0  0  0  0
   -8.5330   18.4792   67.4604 C   0  0  0  0  0  0  0  0  0  0  0  0
   -9.5433   18.2987   69.9938 O   0  0  0  0  0  0  0  0  0  0  0  0
   -9.1481   16.2876   65.9124 O   0  0  0  0  0  0  0  0  0  0  0  0
  -10.7304   14.0247   66.8209 C   0  0  0  0  0  0  0  0  0  0  0  0
  -11.1003   13.0895   66.2465 N   0  0  0  0  0  0  0  0  0  0  0  0
   -7.0275   18.2876   67.7219 C   0  0  0  0  0  0  0  0  0  0  0  0
  -10.0126   16.3511   72.1395 C   0  0  0  0  0  0  0  0  0  0  0  0
  -10.4883   16.2212   73.4591 C   0  0  0  0  0  0  0  0  0  0  0  0
  -11.8103   15.8022   73.6966 C   0  0  0  0  0  0  0  0  0  0  0  0
  -12.6594   15.5153   72.6113 C   0  0  0  0  0  0  0  0  0  0  0  0
  -12.1896   15.6561   71.2886 C   0  0  0  0  0  0  0  0  0  0  0  0
  -12.3486   15.5799   75.3255 Cl  0  0  0  0  0  0  0  0  0  0  0  0
   -6.3058   19.3592   66.9157 C   0  0  0  0  0  0  0  0  0  0  0  0
   -4.9894   19.4432   66.9687 C   0  0  0  0  0  0  0  0  0  0  0  0
   -4.2885   20.4306   66.2890 C   0  0  0  0  0  0  0  0  0  0  0  0
   -2.6097   20.4539   66.3623 Cl  0  0  0  0  0  0  0  0  0  0  0  0
   -4.9434   21.5381   65.6610 C   0  0  0  0  0  0  0  0  0  0  0  0
   -6.3187   21.4530   65.6906 N   0  0  0  0  0  0  0  0  0  0  0  0
   -7.0265   20.4307   66.2960 C   0  0  0  0  0  0  0  0  0  0  0  0
  1  2  2  0
  1  6  1  0
  1 11  1  0
  2  3  1  0
  3  4  1  0
  3  7  1  0
  4  9  2  0
  4  5  1  0
  5  6  1  0
  5  8  1  0
  6 10  2  0
  8 13  1  0
 11 12  3  0
 16 19  1  0
 13 20  1  0
 22 23  1  0
 20 21  2  0
 21 22  1  0
 22 24  2  0
 24 25  1  0
 25 26  2  0
 26 20  1  0
  7 18  2  0
 18 17  1  0
 17 16  2  0
 16 15  1  0
 15 14  2  0
 14  7  1  0
M  END

$$$$
No_43-gen_results_new/Mpro_initial_molecule_p3/2024-06-19-20-31-25/
     RDKit          3D

 28 30  0  0  0  0  0  0  0  0999 V2000
  -10.3383   15.1532   67.5971 C   0  0  0  0  0  0  0  0  0  0  0  0
  -10.7220   15.1619   68.8301 N   0  0  0  0  0  0  0  0  0  0  0  0
  -10.4044   16.2024   69.6852 N   0  0  0  0  0  0  0  0  0  0  0  0
   -9.7271   17.3221   69.2607 C   0  0  0  0  0  0  0  0  0  0  0  0
   -9.3095   17.3212   67.9557 N   0  0  0  0  0  0  0  0  0  0  0  0
   -9.5450   16.2958   67.0814 C   0  0  0  0  0  0  0  0  0  0  0  0
  -10.8644   16.0907   71.0374 C   0  0  0  0  0  0  0  0  0  0  0  0
   -8.5330   18.4792   67.4604 C   0  0  0  0  0  0  0  0  0  0  0  0
   -9.5433   18.2987   69.9938 O   0  0  0  0  0  0  0  0  0  0  0  0
   -9.1481   16.2876   65.9124 O   0  0  0  0  0  0  0  0  0  0  0  0
  -10.7304   14.0247   66.8209 C   0  0  0  0  0  0  0  0  0  0  0  0
  -11.1003   13.0895   66.2465 N   0  0  0  0  0  0  0  0  0  0  0  0
   -7.0275   18.2876   67.7219 C   0  0  0  0  0  0  0  0  0  0  0  0
  -10.0126   16.3511   72.1395 C   0  0  0  0  0  0  0  0  0  0  0  0
  -10.4883   16.2212   73.4591 C   0  0  0  0  0  0  0  0  0  0  0  0
  -11.8103   15.8022   73.6966 C   0  0  0  0  0  0  0  0  0  0  0  0
  -12.6594   15.5153   72.6113 C   0  0  0  0  0  0  0  0  0  0  0  0
  -12.1896   15.6561   71.2886 C   0  0  0  0  0  0  0  0  0  0  0  0
  -12.2768   15.6000   75.1088 C   0  0  0  0  0  0  0  0  0  0  0  0
   -6.5341   17.3729   68.3685 C   0  0  0  0  0  0  0  0  0  0  0  0
   -5.1249   17.1827   68.5818 C   0  0  0  0  0  0  0  0  0  0  0  0
   -4.5636   16.2596   69.3577 C   0  0  0  0  0  0  0  0  0  0  0  0
   -3.2787   15.9896   69.2348 F   0  0  0  0  0  0  0  0  0  0  0  0
   -4.8457   16.4311   70.7989 C   0  0  0  0  0  0  0  0  0  0  0  0
  -12.3537   14.5937   75.5993 O   0  0  0  0  0  0  0  0  0  0  0  0
  -12.4552   16.7029   75.7573 O   0  0  0  0  0  0  0  0  0  0  0  0
   -6.3861   16.6926   71.0052 C   0  0  0  0  0  0  0  0  0  0  0  0
   -6.9617   17.5605   69.9755 C   0  0  0  0  0  0  0  0  0  0  0  0
  1  2  2  0
  1  6  1  0
  1 11  1  0
  2  3  1  0
  3  4  1  0
  3  7  1  0
  4  9  2  0
  4  5  1  0
  5  6  1  0
  5  8  1  0
  6 10  2  0
  8 13  1  0
 11 12  3  0
 16 19  1  0
 22 23  1  0
 19 25  2  0
 19 26  1  0
 13 20  1  0
 20 21  2  0
 21 22  1  0
 22 24  2  0
 24 27  1  0
 27 28  2  0
 28 20  1  0
  7 18  2  0
 18 17  1  0
 17 16  2  0
 16 15  1  0
 15 14  2  0
 14  7  1  0
M  END

$$$$
No_44-gen_results_new/Mpro_initial_molecule_p3/2024-06-19-20-31-25/
     RDKit          3D

 28 30  0  0  0  0  0  0  0  0999 V2000
  -10.3383   15.1532   67.5971 C   0  0  0  0  0  0  0  0  0  0  0  0
  -10.7220   15.1619   68.8301 N   0  0  0  0  0  0  0  0  0  0  0  0
  -10.4044   16.2024   69.6852 N   0  0  0  0  0  0  0  0  0  0  0  0
   -9.7271   17.3221   69.2607 C   0  0  0  0  0  0  0  0  0  0  0  0
   -9.3095   17.3212   67.9557 N   0  0  0  0  0  0  0  0  0  0  0  0
   -9.5450   16.2958   67.0814 C   0  0  0  0  0  0  0  0  0  0  0  0
  -10.8644   16.0907   71.0374 C   0  0  0  0  0  0  0  0  0  0  0  0
   -8.5330   18.4792   67.4604 C   0  0  0  0  0  0  0  0  0  0  0  0
   -9.5433   18.2987   69.9938 O   0  0  0  0  0  0  0  0  0  0  0  0
   -9.1481   16.2876   65.9124 O   0  0  0  0  0  0  0  0  0  0  0  0
  -10.7304   14.0247   66.8209 C   0  0  0  0  0  0  0  0  0  0  0  0
  -11.1003   13.0895   66.2465 N   0  0  0  0  0  0  0  0  0  0  0  0
   -7.0275   18.2876   67.7219 C   0  0  0  0  0  0  0  0  0  0  0  0
  -10.0126   16.3511   72.1395 C   0  0  0  0  0  0  0  0  0  0  0  0
  -10.4883   16.2212   73.4591 C   0  0  0  0  0  0  0  0  0  0  0  0
  -11.8103   15.8022   73.6966 C   0  0  0  0  0  0  0  0  0  0  0  0
  -12.6594   15.5153   72.6113 C   0  0  0  0  0  0  0  0  0  0  0  0
  -12.1896   15.6561   71.2886 C   0  0  0  0  0  0  0  0  0  0  0  0
  -12.3486   15.5799   75.3255 Cl  0  0  0  0  0  0  0  0  0  0  0  0
   -6.5344   17.3734   68.3696 C   0  0  0  0  0  0  0  0  0  0  0  0
   -5.1249   17.1828   68.5820 C   0  0  0  0  0  0  0  0  0  0  0  0
   -4.2977   17.9476   67.7740 C   0  0  0  0  0  0  0  0  0  0  0  0
   -4.9514   18.8738   67.0318 C   0  0  0  0  0  0  0  0  0  0  0  0
   -6.2499   19.0629   66.8453 C   0  0  0  0  0  0  0  0  0  0  0  0
  -14.0277   15.0076   72.7863 O   0  0  0  0  0  0  0  0  0  0  0  0
   -4.0609   19.7095   66.1628 O   0  0  0  0  0  0  0  0  0  0  0  0
   -4.3140   20.9111   65.8575 C   0  0  0  0  0  0  0  0  0  0  0  0
   -3.1876   21.7198   65.4398 C   0  0  0  0  0  0  0  0  0  0  0  0
  1  2  2  0
  1  6  1  0
  1 11  1  0
  2  3  1  0
  3  4  1  0
  3  7  1  0
  4  9  2  0
  4  5  1  0
  5  6  1  0
  5  8  1  0
  6 10  2  0
  8 13  1  0
 11 12  3  0
 16 19  1  0
 17 25  1  0
 23 26  1  0
 26 27  1  0
 27 28  1  0
 13 20  2  0
 20 21  1  0
 21 22  2  0
 22 23  1  0
 23 24  2  0
 24 13  1  0
  7 18  2  0
 18 17  1  0
 17 16  2  0
 16 15  1  0
 15 14  2  0
 14  7  1  0
M  END

$$$$
No_45-gen_results_new/Mpro_initial_molecule_p3/2024-06-19-20-31-25/
     RDKit          3D

 28 30  0  0  0  0  0  0  0  0999 V2000
  -10.3383   15.1532   67.5971 C   0  0  0  0  0  0  0  0  0  0  0  0
  -10.7220   15.1619   68.8301 N   0  0  0  0  0  0  0  0  0  0  0  0
  -10.4044   16.2024   69.6852 N   0  0  0  0  0  0  0  0  0  0  0  0
   -9.7271   17.3221   69.2607 C   0  0  0  0  0  0  0  0  0  0  0  0
   -9.3095   17.3212   67.9557 N   0  0  0  0  0  0  0  0  0  0  0  0
   -9.5450   16.2958   67.0814 C   0  0  0  0  0  0  0  0  0  0  0  0
  -10.8644   16.0907   71.0374 C   0  0  0  0  0  0  0  0  0  0  0  0
   -8.5330   18.4792   67.4604 C   0  0  0  0  0  0  0  0  0  0  0  0
   -9.5433   18.2987   69.9938 O   0  0  0  0  0  0  0  0  0  0  0  0
   -9.1481   16.2876   65.9124 O   0  0  0  0  0  0  0  0  0  0  0  0
  -10.7304   14.0247   66.8209 C   0  0  0  0  0  0  0  0  0  0  0  0
  -11.1003   13.0895   66.2465 N   0  0  0  0  0  0  0  0  0  0  0  0
   -7.0275   18.2876   67.7219 C   0  0  0  0  0  0  0  0  0  0  0  0
  -10.0126   16.3511   72.1395 C   0  0  0  0  0  0  0  0  0  0  0  0
  -10.4883   16.2212   73.4591 C   0  0  0  0  0  0  0  0  0  0  0  0
  -11.8103   15.8022   73.6966 C   0  0  0  0  0  0  0  0  0  0  0  0
  -12.6594   15.5153   72.6113 C   0  0  0  0  0  0  0  0  0  0  0  0
  -12.1896   15.6561   71.2886 C   0  0  0  0  0  0  0  0  0  0  0  0
  -12.3486   15.5799   75.3255 Cl  0  0  0  0  0  0  0  0  0  0  0  0
   -6.3058   19.3592   66.9157 C   0  0  0  0  0  0  0  0  0  0  0  0
   -4.9259   19.3482   66.9560 C   0  0  0  0  0  0  0  0  0  0  0  0
   -4.2806   18.1589   67.5993 C   0  0  0  0  0  0  0  0  0  0  0  0
   -5.0624   17.1662   68.2345 C   0  0  0  0  0  0  0  0  0  0  0  0
   -6.4858   17.1697   68.1309 C   0  0  0  0  0  0  0  0  0  0  0  0
   -4.1879   20.2502   66.4021 N   0  0  0  0  0  0  0  0  0  0  0  0
   -2.8478   20.2237   66.4977 C   0  0  0  0  0  0  0  0  0  0  0  0
   -4.7730   21.4721   65.7436 C   0  0  0  0  0  0  0  0  0  0  0  0
   -3.6913   22.3531   65.2445 C   0  0  0  0  0  0  0  0  0  0  0  0
  1  2  2  0
  1  6  1  0
  1 11  1  0
  2  3  1  0
  3  4  1  0
  3  7  1  0
  4  9  2  0
  4  5  1  0
  5  6  1  0
  5  8  1  0
  6 10  2  0
  8 13  1  0
 11 12  3  0
 16 19  1  0
 21 25  1  0
 25 26  1  0
 25 27  1  0
 27 28  1  0
 13 20  2  0
 20 21  1  0
 21 22  2  0
 22 23  1  0
 23 24  2  0
 24 13  1  0
  7 18  2  0
 18 17  1  0
 17 16  2  0
 16 15  1  0
 15 14  2  0
 14  7  1  0
M  END

$$$$
No_46-gen_results_new/Mpro_initial_molecule_p3/2024-06-19-20-31-25/
     RDKit          3D

 28 30  0  0  0  0  0  0  0  0999 V2000
  -10.3383   15.1532   67.5971 C   0  0  0  0  0  0  0  0  0  0  0  0
  -10.7220   15.1619   68.8301 N   0  0  0  0  0  0  0  0  0  0  0  0
  -10.4044   16.2024   69.6852 N   0  0  0  0  0  0  0  0  0  0  0  0
   -9.7271   17.3221   69.2607 C   0  0  0  0  0  0  0  0  0  0  0  0
   -9.3095   17.3212   67.9557 N   0  0  0  0  0  0  0  0  0  0  0  0
   -9.5450   16.2958   67.0814 C   0  0  0  0  0  0  0  0  0  0  0  0
  -10.8644   16.0907   71.0374 C   0  0  0  0  0  0  0  0  0  0  0  0
   -8.5330   18.4792   67.4604 C   0  0  0  0  0  0  0  0  0  0  0  0
   -9.5433   18.2987   69.9938 O   0  0  0  0  0  0  0  0  0  0  0  0
   -9.1481   16.2876   65.9124 O   0  0  0  0  0  0  0  0  0  0  0  0
  -10.7304   14.0247   66.8209 C   0  0  0  0  0  0  0  0  0  0  0  0
  -11.1003   13.0895   66.2465 N   0  0  0  0  0  0  0  0  0  0  0  0
   -7.0275   18.2876   67.7219 C   0  0  0  0  0  0  0  0  0  0  0  0
  -10.0126   16.3511   72.1395 C   0  0  0  0  0  0  0  0  0  0  0  0
  -10.4883   16.2212   73.4591 C   0  0  0  0  0  0  0  0  0  0  0  0
  -11.8103   15.8022   73.6966 C   0  0  0  0  0  0  0  0  0  0  0  0
  -12.6594   15.5153   72.6113 C   0  0  0  0  0  0  0  0  0  0  0  0
  -12.1896   15.6561   71.2886 C   0  0  0  0  0  0  0  0  0  0  0  0
  -12.2768   15.6000   75.1088 C   0  0  0  0  0  0  0  0  0  0  0  0
   -6.5341   17.3729   68.3685 C   0  0  0  0  0  0  0  0  0  0  0  0
   -5.1308   17.1882   68.5568 C   0  0  0  0  0  0  0  0  0  0  0  0
   -6.2282   19.1886   66.9092 C   0  0  0  0  0  0  0  0  0  0  0  0
   -4.8273   19.0035   67.0391 C   0  0  0  0  0  0  0  0  0  0  0  0
   -4.3060   18.0195   67.7979 C   0  0  0  0  0  0  0  0  0  0  0  0
  -12.6572   14.5401   75.4421 F   0  0  0  0  0  0  0  0  0  0  0  0
  -13.1198   16.6088   75.4027 F   0  0  0  0  0  0  0  0  0  0  0  0
  -11.2620   15.8353   75.9952 F   0  0  0  0  0  0  0  0  0  0  0  0
   -6.7604   20.1929   66.1161 O   0  0  0  0  0  0  0  0  0  0  0  0
  1  2  2  0
  1  6  1  0
  1 11  1  0
  2  3  1  0
  3  4  1  0
  3  7  1  0
  4  9  2  0
  4  5  1  0
  5  6  1  0
  5  8  1  0
  6 10  2  0
  8 13  1  0
 11 12  3  0
 16 19  1  0
 19 25  1  0
 19 26  1  0
 19 27  1  0
 22 28  1  0
 13 20  2  0
 20 21  1  0
 21 24  2  0
 24 23  1  0
 23 22  2  0
 22 13  1  0
  7 18  2  0
 18 17  1  0
 17 16  2  0
 16 15  1  0
 15 14  2  0
 14  7  1  0
M  END

$$$$
No_47-gen_results_new/Mpro_initial_molecule_p3/2024-06-19-20-31-25/
     RDKit          3D

 28 30  0  0  0  0  0  0  0  0999 V2000
  -10.3383   15.1532   67.5971 C   0  0  0  0  0  0  0  0  0  0  0  0
  -10.7220   15.1619   68.8301 N   0  0  0  0  0  0  0  0  0  0  0  0
  -10.4044   16.2024   69.6852 N   0  0  0  0  0  0  0  0  0  0  0  0
   -9.7271   17.3221   69.2607 C   0  0  0  0  0  0  0  0  0  0  0  0
   -9.3095   17.3212   67.9557 N   0  0  0  0  0  0  0  0  0  0  0  0
   -9.5450   16.2958   67.0814 C   0  0  0  0  0  0  0  0  0  0  0  0
  -10.8644   16.0907   71.0374 C   0  0  0  0  0  0  0  0  0  0  0  0
   -8.5330   18.4792   67.4604 C   0  0  0  0  0  0  0  0  0  0  0  0
   -9.5433   18.2987   69.9938 O   0  0  0  0  0  0  0  0  0  0  0  0
   -9.1481   16.2876   65.9124 O   0  0  0  0  0  0  0  0  0  0  0  0
  -10.7304   14.0247   66.8209 C   0  0  0  0  0  0  0  0  0  0  0  0
  -11.1003   13.0895   66.2465 N   0  0  0  0  0  0  0  0  0  0  0  0
   -7.0275   18.2876   67.7219 C   0  0  0  0  0  0  0  0  0  0  0  0
  -10.0126   16.3511   72.1395 C   0  0  0  0  0  0  0  0  0  0  0  0
  -10.4883   16.2212   73.4591 C   0  0  0  0  0  0  0  0  0  0  0  0
  -11.8103   15.8022   73.6966 C   0  0  0  0  0  0  0  0  0  0  0  0
  -12.6594   15.5153   72.6113 C   0  0  0  0  0  0  0  0  0  0  0  0
  -12.1896   15.6561   71.2886 C   0  0  0  0  0  0  0  0  0  0  0  0
  -12.2768   15.6000   75.1088 C   0  0  0  0  0  0  0  0  0  0  0  0
   -6.5556   17.2014   67.9036 O   0  0  0  0  0  0  0  0  0  0  0  0
   -6.4128   19.3144   68.0692 N   0  0  0  0  0  0  0  0  0  0  0  0
  -11.9790   16.5266   75.8871 N   0  0  0  0  0  0  0  0  0  0  0  0
   -4.9880   19.3266   68.2184 C   0  0  0  0  0  0  0  0  0  0  0  0
   -4.6370   19.3937   69.5271 C   0  0  0  0  0  0  0  0  0  0  0  0
   -3.2244   19.5546   69.7551 N   0  0  0  0  0  0  0  0  0  0  0  0
   -2.4177   19.7575   68.7445 C   0  0  0  0  0  0  0  0  0  0  0  0
   -4.1284   19.5400   67.2122 C   0  0  0  0  0  0  0  0  0  0  0  0
   -2.7975   19.7588   67.4643 C   0  0  0  0  0  0  0  0  0  0  0  0
  1  2  2  0
  1  6  1  0
  1 11  1  0
  2  3  1  0
  3  4  1  0
  3  7  1  0
  4  9  2  0
  4  5  1  0
  5  6  1  0
  5  8  1  0
  6 10  2  0
  8 13  1  0
 11 12  3  0
 16 19  1  0
 13 20  2  0
 13 21  1  0
 19 22  1  0
 21 23  1  0
 23 24  2  0
 24 25  1  0
 25 26  2  0
 26 28  1  0
 28 27  2  0
 27 23  1  0
  7 18  2  0
 18 17  1  0
 17 16  2  0
 16 15  1  0
 15 14  2  0
 14  7  1  0
M  END

$$$$
No_48-gen_results_new/Mpro_initial_molecule_p3/2024-06-19-20-31-25/
     RDKit          3D

 28 30  0  0  0  0  0  0  0  0999 V2000
  -10.3383   15.1532   67.5971 C   0  0  0  0  0  0  0  0  0  0  0  0
  -10.7220   15.1619   68.8301 N   0  0  0  0  0  0  0  0  0  0  0  0
  -10.4044   16.2024   69.6852 N   0  0  0  0  0  0  0  0  0  0  0  0
   -9.7271   17.3221   69.2607 C   0  0  0  0  0  0  0  0  0  0  0  0
   -9.3095   17.3212   67.9557 N   0  0  0  0  0  0  0  0  0  0  0  0
   -9.5450   16.2958   67.0814 C   0  0  0  0  0  0  0  0  0  0  0  0
  -10.8644   16.0907   71.0374 C   0  0  0  0  0  0  0  0  0  0  0  0
   -8.5330   18.4792   67.4604 C   0  0  0  0  0  0  0  0  0  0  0  0
   -9.5433   18.2987   69.9938 O   0  0  0  0  0  0  0  0  0  0  0  0
   -9.1481   16.2876   65.9124 O   0  0  0  0  0  0  0  0  0  0  0  0
  -10.7304   14.0247   66.8209 C   0  0  0  0  0  0  0  0  0  0  0  0
  -11.1003   13.0895   66.2465 N   0  0  0  0  0  0  0  0  0  0  0  0
   -7.0275   18.2876   67.7219 C   0  0  0  0  0  0  0  0  0  0  0  0
  -10.0126   16.3511   72.1395 C   0  0  0  0  0  0  0  0  0  0  0  0
  -10.4883   16.2212   73.4591 C   0  0  0  0  0  0  0  0  0  0  0  0
  -11.8103   15.8022   73.6966 C   0  0  0  0  0  0  0  0  0  0  0  0
  -12.6594   15.5153   72.6113 C   0  0  0  0  0  0  0  0  0  0  0  0
  -12.1896   15.6561   71.2886 C   0  0  0  0  0  0  0  0  0  0  0  0
  -12.2768   15.6000   75.1088 C   0  0  0  0  0  0  0  0  0  0  0  0
   -6.5341   17.3729   68.3685 C   0  0  0  0  0  0  0  0  0  0  0  0
   -5.1308   17.1882   68.5568 C   0  0  0  0  0  0  0  0  0  0  0  0
   -6.2282   19.1886   66.9092 C   0  0  0  0  0  0  0  0  0  0  0  0
   -4.8273   19.0035   67.0391 C   0  0  0  0  0  0  0  0  0  0  0  0
   -4.3060   18.0195   67.7979 C   0  0  0  0  0  0  0  0  0  0  0  0
  -11.4723   15.7216   75.8923 F   0  0  0  0  0  0  0  0  0  0  0  0
  -13.4092   15.5957   75.1867 F   0  0  0  0  0  0  0  0  0  0  0  0
  -12.5224   14.2630   74.8391 F   0  0  0  0  0  0  0  0  0  0  0  0
   -6.8559   20.2663   66.0651 C   0  0  0  0  0  0  0  0  0  0  0  0
  1  2  2  0
  1  6  1  0
  1 11  1  0
  2  3  1  0
  3  4  1  0
  3  7  1  0
  4  9  2  0
  4  5  1  0
  5  6  1  0
  5  8  1  0
  6 10  2  0
  8 13  1  0
 11 12  3  0
 16 19  1  0
 19 25  1  0
 19 26  1  0
 19 27  1  0
 22 28  1  0
 13 20  2  0
 20 21  1  0
 21 24  2  0
 24 23  1  0
 23 22  2  0
 22 13  1  0
  7 18  2  0
 18 17  1  0
 17 16  2  0
 16 15  1  0
 15 14  2  0
 14  7  1  0
M  END

$$$$
No_49-gen_results_new/Mpro_initial_molecule_p3/2024-06-19-20-31-25/
     RDKit          3D

 28 30  0  0  0  0  0  0  0  0999 V2000
  -10.3383   15.1532   67.5971 C   0  0  0  0  0  0  0  0  0  0  0  0
  -10.7220   15.1619   68.8301 N   0  0  0  0  0  0  0  0  0  0  0  0
  -10.4044   16.2024   69.6852 N   0  0  0  0  0  0  0  0  0  0  0  0
   -9.7271   17.3221   69.2607 C   0  0  0  0  0  0  0  0  0  0  0  0
   -9.3095   17.3212   67.9557 N   0  0  0  0  0  0  0  0  0  0  0  0
   -9.5450   16.2958   67.0814 C   0  0  0  0  0  0  0  0  0  0  0  0
  -10.8644   16.0907   71.0374 C   0  0  0  0  0  0  0  0  0  0  0  0
   -8.5330   18.4792   67.4604 C   0  0  0  0  0  0  0  0  0  0  0  0
   -9.5433   18.2987   69.9938 O   0  0  0  0  0  0  0  0  0  0  0  0
   -9.1481   16.2876   65.9124 O   0  0  0  0  0  0  0  0  0  0  0  0
  -10.7304   14.0247   66.8209 C   0  0  0  0  0  0  0  0  0  0  0  0
  -11.1003   13.0895   66.2465 N   0  0  0  0  0  0  0  0  0  0  0  0
   -7.0275   18.2876   67.7219 C   0  0  0  0  0  0  0  0  0  0  0  0
  -10.0126   16.3511   72.1395 C   0  0  0  0  0  0  0  0  0  0  0  0
  -10.4883   16.2212   73.4591 C   0  0  0  0  0  0  0  0  0  0  0  0
  -11.8103   15.8022   73.6966 C   0  0  0  0  0  0  0  0  0  0  0  0
  -12.6594   15.5153   72.6113 C   0  0  0  0  0  0  0  0  0  0  0  0
  -12.1896   15.6561   71.2886 C   0  0  0  0  0  0  0  0  0  0  0  0
  -12.3486   15.5799   75.3255 Cl  0  0  0  0  0  0  0  0  0  0  0  0
   -6.4523   19.3079   67.8835 C   0  0  0  0  0  0  0  0  0  0  0  0
   -6.2543   20.3848   67.0158 C   0  0  0  0  0  0  0  0  0  0  0  0
   -7.5207   20.6319   66.4322 O   0  0  0  0  0  0  0  0  0  0  0  0
   -5.3838   21.1761   66.8470 O   0  0  0  0  0  0  0  0  0  0  0  0
  -14.0279   15.0079   72.7858 O   0  0  0  0  0  0  0  0  0  0  0  0
   -5.2918   19.2333   68.9570 C   0  0  0  0  0  0  0  0  0  0  0  0
   -5.2074   18.0395   69.7004 C   0  0  0  0  0  0  0  0  0  0  0  0
   -6.1112   16.8557   69.5635 C   0  0  0  0  0  0  0  0  0  0  0  0
   -7.1324   17.0291   68.6125 C   0  0  0  0  0  0  0  0  0  0  0  0
  1  2  2  0
  1  6  1  0
  1 11  1  0
  2  3  1  0
  3  4  1  0
  3  7  1  0
  4  9  2  0
  4  5  1  0
  5  6  1  0
  5  8  1  0
  6 10  2  0
  8 13  1  0
 11 12  3  0
 16 19  1  0
 20 21  1  0
 21 22  1  0
 21 23  2  0
 17 24  1  0
  7 18  2  0
 18 17  1  0
 17 16  2  0
 16 15  1  0
 15 14  2  0
 14  7  1  0
 13 20  2  0
 20 25  1  0
 25 26  2  0
 26 27  1  0
 27 28  2  0
 28 13  1  0
M  END

$$$$
No_50-gen_results_new/Mpro_initial_molecule_p3/2024-06-19-20-31-25/
     RDKit          3D

 28 30  0  0  0  0  0  0  0  0999 V2000
  -10.3383   15.1532   67.5971 C   0  0  0  0  0  0  0  0  0  0  0  0
  -10.7220   15.1619   68.8301 N   0  0  0  0  0  0  0  0  0  0  0  0
  -10.4044   16.2024   69.6852 N   0  0  0  0  0  0  0  0  0  0  0  0
   -9.7271   17.3221   69.2607 C   0  0  0  0  0  0  0  0  0  0  0  0
   -9.3095   17.3212   67.9557 N   0  0  0  0  0  0  0  0  0  0  0  0
   -9.5450   16.2958   67.0814 C   0  0  0  0  0  0  0  0  0  0  0  0
  -10.8644   16.0907   71.0374 C   0  0  0  0  0  0  0  0  0  0  0  0
   -8.5330   18.4792   67.4604 C   0  0  0  0  0  0  0  0  0  0  0  0
   -9.5433   18.2987   69.9938 O   0  0  0  0  0  0  0  0  0  0  0  0
   -9.1481   16.2876   65.9124 O   0  0  0  0  0  0  0  0  0  0  0  0
  -10.7304   14.0247   66.8209 C   0  0  0  0  0  0  0  0  0  0  0  0
  -11.1003   13.0895   66.2465 N   0  0  0  0  0  0  0  0  0  0  0  0
   -7.0275   18.2876   67.7219 C   0  0  0  0  0  0  0  0  0  0  0  0
  -10.0126   16.3511   72.1395 C   0  0  0  0  0  0  0  0  0  0  0  0
  -10.4883   16.2212   73.4591 C   0  0  0  0  0  0  0  0  0  0  0  0
  -11.8103   15.8022   73.6966 C   0  0  0  0  0  0  0  0  0  0  0  0
  -12.6594   15.5153   72.6113 C   0  0  0  0  0  0  0  0  0  0  0  0
  -12.1896   15.6561   71.2886 C   0  0  0  0  0  0  0  0  0  0  0  0
  -12.2768   15.6000   75.1088 C   0  0  0  0  0  0  0  0  0  0  0  0
   -6.4522   19.3092   67.8826 C   0  0  0  0  0  0  0  0  0  0  0  0
  -12.5808   16.5955   75.6954 O   0  0  0  0  0  0  0  0  0  0  0  0
  -12.1193   14.5206   75.6006 O   0  0  0  0  0  0  0  0  0  0  0  0
   -6.3899   20.4081   67.0288 C   0  0  0  0  0  0  0  0  0  0  0  0
   -5.2339   21.2084   66.8387 C   0  0  0  0  0  0  0  0  0  0  0  0
   -4.2413   21.1189   67.8368 C   0  0  0  0  0  0  0  0  0  0  0  0
   -4.1953   19.9889   68.7799 C   0  0  0  0  0  0  0  0  0  0  0  0
   -5.2551   19.1251   68.8292 C   0  0  0  0  0  0  0  0  0  0  0  0
   -3.4249   19.7875   69.8053 C   0  0  0  0  0  0  0  0  0  0  0  0
  1  2  2  0
  1  6  1  0
  1 11  1  0
  2  3  1  0
  3  4  1  0
  3  7  1  0
  4  9  2  0
  4  5  1  0
  5  6  1  0
  5  8  1  0
  6 10  2  0
  8 13  1  0
 11 12  3  0
 16 19  1  0
 13 20  1  0
 19 21  2  0
 19 22  1  0
 26 28  1  0
 20 23  2  0
 23 24  1  0
 24 25  2  0
 25 26  1  0
 26 27  2  0
 27 20  1  0
  7 18  2  0
 18 17  1  0
 17 16  2  0
 16 15  1  0
 15 14  2  0
 14  7  1  0
M  END

$$$$
No_51-gen_results_new/Mpro_initial_molecule_p3/2024-06-19-20-31-25/
     RDKit          3D

 28 30  0  0  0  0  0  0  0  0999 V2000
  -10.3383   15.1532   67.5971 C   0  0  0  0  0  0  0  0  0  0  0  0
  -10.7220   15.1619   68.8301 N   0  0  0  0  0  0  0  0  0  0  0  0
  -10.4044   16.2024   69.6852 N   0  0  0  0  0  0  0  0  0  0  0  0
   -9.7271   17.3221   69.2607 C   0  0  0  0  0  0  0  0  0  0  0  0
   -9.3095   17.3212   67.9557 N   0  0  0  0  0  0  0  0  0  0  0  0
   -9.5450   16.2958   67.0814 C   0  0  0  0  0  0  0  0  0  0  0  0
  -10.8644   16.0907   71.0374 C   0  0  0  0  0  0  0  0  0  0  0  0
   -8.5330   18.4792   67.4604 C   0  0  0  0  0  0  0  0  0  0  0  0
   -9.5433   18.2987   69.9938 O   0  0  0  0  0  0  0  0  0  0  0  0
   -9.1481   16.2876   65.9124 O   0  0  0  0  0  0  0  0  0  0  0  0
  -10.7304   14.0247   66.8209 C   0  0  0  0  0  0  0  0  0  0  0  0
  -11.1003   13.0895   66.2465 N   0  0  0  0  0  0  0  0  0  0  0  0
   -7.0275   18.2876   67.7219 C   0  0  0  0  0  0  0  0  0  0  0  0
  -10.0126   16.3511   72.1395 C   0  0  0  0  0  0  0  0  0  0  0  0
  -10.4883   16.2212   73.4591 C   0  0  0  0  0  0  0  0  0  0  0  0
  -11.8103   15.8022   73.6966 C   0  0  0  0  0  0  0  0  0  0  0  0
  -12.6594   15.5153   72.6113 C   0  0  0  0  0  0  0  0  0  0  0  0
  -12.1896   15.6561   71.2886 C   0  0  0  0  0  0  0  0  0  0  0  0
  -12.2768   15.6000   75.1088 C   0  0  0  0  0  0  0  0  0  0  0  0
   -6.5341   17.3729   68.3685 C   0  0  0  0  0  0  0  0  0  0  0  0
   -5.1249   17.1827   68.5818 C   0  0  0  0  0  0  0  0  0  0  0  0
   -4.4393   18.0516   67.8378 C   0  0  0  0  0  0  0  0  0  0  0  0
   -4.8689   19.0478   67.0695 C   0  0  0  0  0  0  0  0  0  0  0  0
   -6.2627   19.1643   66.9261 C   0  0  0  0  0  0  0  0  0  0  0  0
  -12.5818   16.5942   75.6961 O   0  0  0  0  0  0  0  0  0  0  0  0
  -12.1192   14.5198   75.5992 O   0  0  0  0  0  0  0  0  0  0  0  0
  -13.9732   15.0164   72.8086 O   0  0  0  0  0  0  0  0  0  0  0  0
   -4.1149   19.9056   66.3818 F   0  0  0  0  0  0  0  0  0  0  0  0
  1  2  2  0
  1  6  1  0
  1 11  1  0
  2  3  1  0
  3  4  1  0
  3  7  1  0
  4  9  2  0
  4  5  1  0
  5  6  1  0
  5  8  1  0
  6 10  2  0
  8 13  1  0
 11 12  3  0
 16 19  1  0
 19 25  2  0
 19 26  1  0
 17 27  1  0
 23 28  1  0
 13 20  2  0
 20 21  1  0
 21 22  2  0
 22 23  1  0
 23 24  2  0
 24 13  1  0
  7 18  2  0
 18 17  1  0
 17 16  2  0
 16 15  1  0
 15 14  2  0
 14  7  1  0
M  END

$$$$
No_52-gen_results_new/Mpro_initial_molecule_p3/2024-06-19-20-31-25/
     RDKit          3D

 28 30  0  0  0  0  0  0  0  0999 V2000
  -10.3383   15.1532   67.5971 C   0  0  0  0  0  0  0  0  0  0  0  0
  -10.7220   15.1619   68.8301 N   0  0  0  0  0  0  0  0  0  0  0  0
  -10.4044   16.2024   69.6852 N   0  0  0  0  0  0  0  0  0  0  0  0
   -9.7271   17.3221   69.2607 C   0  0  0  0  0  0  0  0  0  0  0  0
   -9.3095   17.3212   67.9557 N   0  0  0  0  0  0  0  0  0  0  0  0
   -9.5450   16.2958   67.0814 C   0  0  0  0  0  0  0  0  0  0  0  0
  -10.8644   16.0907   71.0374 C   0  0  0  0  0  0  0  0  0  0  0  0
   -8.5330   18.4792   67.4604 C   0  0  0  0  0  0  0  0  0  0  0  0
   -9.5433   18.2987   69.9938 O   0  0  0  0  0  0  0  0  0  0  0  0
   -9.1481   16.2876   65.9124 O   0  0  0  0  0  0  0  0  0  0  0  0
  -10.7304   14.0247   66.8209 C   0  0  0  0  0  0  0  0  0  0  0  0
  -11.1003   13.0895   66.2465 N   0  0  0  0  0  0  0  0  0  0  0  0
   -7.0275   18.2876   67.7219 C   0  0  0  0  0  0  0  0  0  0  0  0
  -10.0126   16.3511   72.1395 C   0  0  0  0  0  0  0  0  0  0  0  0
  -10.4883   16.2212   73.4591 C   0  0  0  0  0  0  0  0  0  0  0  0
  -11.8103   15.8022   73.6966 C   0  0  0  0  0  0  0  0  0  0  0  0
  -12.6594   15.5153   72.6113 C   0  0  0  0  0  0  0  0  0  0  0  0
  -12.1896   15.6561   71.2886 C   0  0  0  0  0  0  0  0  0  0  0  0
  -12.2484   15.6088   75.0145 O   0  0  0  0  0  0  0  0  0  0  0  0
   -6.5341   17.3731   68.3686 C   0  0  0  0  0  0  0  0  0  0  0  0
   -5.1307   17.1884   68.5569 C   0  0  0  0  0  0  0  0  0  0  0  0
   -6.2283   19.1886   66.9090 C   0  0  0  0  0  0  0  0  0  0  0  0
   -4.8273   19.0035   67.0389 C   0  0  0  0  0  0  0  0  0  0  0  0
   -4.3060   18.0196   67.7978 C   0  0  0  0  0  0  0  0  0  0  0  0
  -12.3371   16.7921   75.7211 C   0  0  0  0  0  0  0  0  0  0  0  0
  -14.0714   14.8949   72.8098 C   0  0  0  0  0  0  0  0  0  0  0  0
   -6.7610   20.1928   66.1160 O   0  0  0  0  0  0  0  0  0  0  0  0
   -4.4841   15.9021   69.5514 Cl  0  0  0  0  0  0  0  0  0  0  0  0
  1  2  2  0
  1  6  1  0
  1 11  1  0
  2  3  1  0
  3  4  1  0
  3  7  1  0
  4  9  2  0
  4  5  1  0
  5  6  1  0
  5  8  1  0
  6 10  2  0
  8 13  1  0
 11 12  3  0
 16 19  1  0
 19 25  1  0
 17 26  1  0
 22 27  1  0
 21 28  1  0
 13 20  2  0
 20 21  1  0
 21 24  2  0
 24 23  1  0
 23 22  2  0
 22 13  1  0
  7 18  2  0
 18 17  1  0
 17 16  2  0
 16 15  1  0
 15 14  2  0
 14  7  1  0
M  END

$$$$
No_53-gen_results_new/Mpro_initial_molecule_p3/2024-06-19-20-31-25/
     RDKit          3D

 28 30  0  0  0  0  0  0  0  0999 V2000
  -10.3383   15.1532   67.5971 C   0  0  0  0  0  0  0  0  0  0  0  0
  -10.7220   15.1619   68.8301 N   0  0  0  0  0  0  0  0  0  0  0  0
  -10.4044   16.2024   69.6852 N   0  0  0  0  0  0  0  0  0  0  0  0
   -9.7271   17.3221   69.2607 C   0  0  0  0  0  0  0  0  0  0  0  0
   -9.3095   17.3212   67.9557 N   0  0  0  0  0  0  0  0  0  0  0  0
   -9.5450   16.2958   67.0814 C   0  0  0  0  0  0  0  0  0  0  0  0
  -10.8644   16.0907   71.0374 C   0  0  0  0  0  0  0  0  0  0  0  0
   -8.5330   18.4792   67.4604 C   0  0  0  0  0  0  0  0  0  0  0  0
   -9.5433   18.2987   69.9938 O   0  0  0  0  0  0  0  0  0  0  0  0
   -9.1481   16.2876   65.9124 O   0  0  0  0  0  0  0  0  0  0  0  0
  -10.7304   14.0247   66.8209 C   0  0  0  0  0  0  0  0  0  0  0  0
  -11.1003   13.0895   66.2465 N   0  0  0  0  0  0  0  0  0  0  0  0
   -7.0275   18.2876   67.7219 C   0  0  0  0  0  0  0  0  0  0  0  0
  -10.0126   16.3511   72.1395 C   0  0  0  0  0  0  0  0  0  0  0  0
  -10.4883   16.2212   73.4591 C   0  0  0  0  0  0  0  0  0  0  0  0
  -11.8103   15.8022   73.6966 C   0  0  0  0  0  0  0  0  0  0  0  0
  -12.6594   15.5153   72.6113 C   0  0  0  0  0  0  0  0  0  0  0  0
  -12.1896   15.6561   71.2886 C   0  0  0  0  0  0  0  0  0  0  0  0
  -12.2768   15.6000   75.1088 C   0  0  0  0  0  0  0  0  0  0  0  0
   -6.5521   17.2992   68.1986 N   0  0  0  0  0  0  0  0  0  0  0  0
  -12.3526   14.5917   75.5989 O   0  0  0  0  0  0  0  0  0  0  0  0
  -12.8134   16.6644   75.6553 O   0  0  0  0  0  0  0  0  0  0  0  0
   -6.0794   19.0798   67.4175 C   0  0  0  0  0  0  0  0  0  0  0  0
   -6.3746   20.4565   66.7921 C   0  0  0  0  0  0  0  0  0  0  0  0
   -7.7916   20.6769   66.5375 C   0  0  0  0  0  0  0  0  0  0  0  0
   -8.7798   19.6978   66.9170 C   0  0  0  0  0  0  0  0  0  0  0  0
   -5.4662   21.3376   66.5690 O   0  0  0  0  0  0  0  0  0  0  0  0
   -4.5060   21.1509   65.6242 C   0  0  0  0  0  0  0  0  0  0  0  0
  1  2  2  0
  1  6  1  0
  1 11  1  0
  2  3  1  0
  3  4  1  0
  3  7  1  0
  4  9  2  0
  4  5  1  0
  5  6  1  0
  5  8  1  0
  6 10  2  0
 11 12  3  0
 16 19  1  0
 19 21  2  0
 19 22  1  0
 24 27  1  0
 27 28  1  0
 20 13  1  0
  8 13  2  0
 13 23  1  0
 23 24  2  0
 24 25  1  0
 25 26  2  0
 26  8  1  0
  7 18  2  0
 18 17  1  0
 17 16  2  0
 16 15  1  0
 15 14  2  0
 14  7  1  0
M  END

$$$$
No_54-gen_results_new/Mpro_initial_molecule_p3/2024-06-19-20-31-25/
     RDKit          3D

 28 30  0  0  0  0  0  0  0  0999 V2000
  -10.3383   15.1532   67.5971 C   0  0  0  0  0  0  0  0  0  0  0  0
  -10.7220   15.1619   68.8301 N   0  0  0  0  0  0  0  0  0  0  0  0
  -10.4044   16.2024   69.6852 N   0  0  0  0  0  0  0  0  0  0  0  0
   -9.7271   17.3221   69.2607 C   0  0  0  0  0  0  0  0  0  0  0  0
   -9.3095   17.3212   67.9557 N   0  0  0  0  0  0  0  0  0  0  0  0
   -9.5450   16.2958   67.0814 C   0  0  0  0  0  0  0  0  0  0  0  0
  -10.8644   16.0907   71.0374 C   0  0  0  0  0  0  0  0  0  0  0  0
   -8.5330   18.4792   67.4604 C   0  0  0  0  0  0  0  0  0  0  0  0
   -9.5433   18.2987   69.9938 O   0  0  0  0  0  0  0  0  0  0  0  0
   -9.1481   16.2876   65.9124 O   0  0  0  0  0  0  0  0  0  0  0  0
  -10.7304   14.0247   66.8209 C   0  0  0  0  0  0  0  0  0  0  0  0
  -11.1003   13.0895   66.2465 N   0  0  0  0  0  0  0  0  0  0  0  0
   -7.0275   18.2876   67.7219 C   0  0  0  0  0  0  0  0  0  0  0  0
  -10.0126   16.3511   72.1395 C   0  0  0  0  0  0  0  0  0  0  0  0
  -10.4883   16.2212   73.4591 C   0  0  0  0  0  0  0  0  0  0  0  0
  -11.8103   15.8022   73.6966 C   0  0  0  0  0  0  0  0  0  0  0  0
  -12.6594   15.5153   72.6113 C   0  0  0  0  0  0  0  0  0  0  0  0
  -12.1896   15.6561   71.2886 C   0  0  0  0  0  0  0  0  0  0  0  0
  -12.2768   15.6000   75.1088 C   0  0  0  0  0  0  0  0  0  0  0  0
   -6.3059   19.3590   66.9154 C   0  0  0  0  0  0  0  0  0  0  0  0
   -4.9893   19.4432   66.9685 C   0  0  0  0  0  0  0  0  0  0  0  0
   -4.1584   20.6606   66.1406 Cl  0  0  0  0  0  0  0  0  0  0  0  0
  -12.3532   14.5919   75.5994 O   0  0  0  0  0  0  0  0  0  0  0  0
  -12.4570   16.7007   75.7589 O   0  0  0  0  0  0  0  0  0  0  0  0
   -4.1108   18.3173   67.3920 C   0  0  0  0  0  0  0  0  0  0  0  0
   -4.8771   17.2726   68.1452 C   0  0  0  0  0  0  0  0  0  0  0  0
   -6.3804   17.2181   68.0923 C   0  0  0  0  0  0  0  0  0  0  0  0
  -13.8438   14.8434   73.0504 C   0  0  0  0  0  0  0  0  0  0  0  0
  1  2  2  0
  1  6  1  0
  1 11  1  0
  2  3  1  0
  3  4  1  0
  3  7  1  0
  4  9  2  0
  4  5  1  0
  5  6  1  0
  5  8  1  0
  6 10  2  0
  8 13  1  0
 11 12  3  0
 16 19  1  0
 21 22  1  0
 19 23  2  0
 19 24  1  0
 17 28  1  0
 13 20  2  0
 20 21  1  0
 21 25  2  0
 25 26  1  0
 26 27  2  0
 27 13  1  0
  7 18  2  0
 18 17  1  0
 17 16  2  0
 16 15  1  0
 15 14  2  0
 14  7  1  0
M  END

$$$$
No_55-gen_results_new/Mpro_initial_molecule_p3/2024-06-19-20-31-25/
     RDKit          3D

 28 30  0  0  0  0  0  0  0  0999 V2000
  -10.3383   15.1532   67.5971 C   0  0  0  0  0  0  0  0  0  0  0  0
  -10.7220   15.1619   68.8301 N   0  0  0  0  0  0  0  0  0  0  0  0
  -10.4044   16.2024   69.6852 N   0  0  0  0  0  0  0  0  0  0  0  0
   -9.7271   17.3221   69.2607 C   0  0  0  0  0  0  0  0  0  0  0  0
   -9.3095   17.3212   67.9557 N   0  0  0  0  0  0  0  0  0  0  0  0
   -9.5450   16.2958   67.0814 C   0  0  0  0  0  0  0  0  0  0  0  0
  -10.8644   16.0907   71.0374 C   0  0  0  0  0  0  0  0  0  0  0  0
   -8.5330   18.4792   67.4604 C   0  0  0  0  0  0  0  0  0  0  0  0
   -9.5433   18.2987   69.9938 O   0  0  0  0  0  0  0  0  0  0  0  0
   -9.1481   16.2876   65.9124 O   0  0  0  0  0  0  0  0  0  0  0  0
  -10.7304   14.0247   66.8209 C   0  0  0  0  0  0  0  0  0  0  0  0
  -11.1003   13.0895   66.2465 N   0  0  0  0  0  0  0  0  0  0  0  0
   -7.0275   18.2876   67.7219 C   0  0  0  0  0  0  0  0  0  0  0  0
  -10.0126   16.3511   72.1395 C   0  0  0  0  0  0  0  0  0  0  0  0
  -10.4883   16.2212   73.4591 C   0  0  0  0  0  0  0  0  0  0  0  0
  -11.8103   15.8022   73.6966 C   0  0  0  0  0  0  0  0  0  0  0  0
  -12.6594   15.5153   72.6113 C   0  0  0  0  0  0  0  0  0  0  0  0
  -12.1896   15.6561   71.2886 C   0  0  0  0  0  0  0  0  0  0  0  0
  -12.2768   15.6000   75.1088 C   0  0  0  0  0  0  0  0  0  0  0  0
   -6.5341   17.3729   68.3685 C   0  0  0  0  0  0  0  0  0  0  0  0
   -5.1308   17.1882   68.5568 C   0  0  0  0  0  0  0  0  0  0  0  0
   -6.2352   18.5841   66.5228 C   0  0  0  0  0  0  0  0  0  0  0  0
   -4.8738   18.3561   66.5020 C   0  0  0  0  0  0  0  0  0  0  0  0
   -4.3443   17.5536   67.4637 C   0  0  0  0  0  0  0  0  0  0  0  0
  -12.5816   16.5944   75.6960 O   0  0  0  0  0  0  0  0  0  0  0  0
  -12.1192   14.5200   75.5994 O   0  0  0  0  0  0  0  0  0  0  0  0
   -2.9801   17.2315   67.3801 O   0  0  0  0  0  0  0  0  0  0  0  0
   -2.5551   16.1643   67.4335 C   0  0  0  0  0  0  0  0  0  0  0  0
  1  2  2  0
  1  6  1  0
  1 11  1  0
  2  3  1  0
  3  4  1  0
  3  7  1  0
  4  9  2  0
  4  5  1  0
  5  6  1  0
  5  8  1  0
  6 10  2  0
  8 13  1  0
 11 12  3  0
 16 19  1  0
 19 25  2  0
 19 26  1  0
 24 27  1  0
 27 28  1  0
 13 20  2  0
 20 21  1  0
 21 24  2  0
 24 23  1  0
 23 22  2  0
 22 13  1  0
  7 18  2  0
 18 17  1  0
 17 16  2  0
 16 15  1  0
 15 14  2  0
 14  7  1  0
M  END

$$$$
No_56-gen_results_new/Mpro_initial_molecule_p3/2024-06-19-20-31-25/
     RDKit          3D

 28 30  0  0  0  0  0  0  0  0999 V2000
  -10.3383   15.1532   67.5971 C   0  0  0  0  0  0  0  0  0  0  0  0
  -10.7220   15.1619   68.8301 N   0  0  0  0  0  0  0  0  0  0  0  0
  -10.4044   16.2024   69.6852 N   0  0  0  0  0  0  0  0  0  0  0  0
   -9.7271   17.3221   69.2607 C   0  0  0  0  0  0  0  0  0  0  0  0
   -9.3095   17.3212   67.9557 N   0  0  0  0  0  0  0  0  0  0  0  0
   -9.5450   16.2958   67.0814 C   0  0  0  0  0  0  0  0  0  0  0  0
  -10.8644   16.0907   71.0374 C   0  0  0  0  0  0  0  0  0  0  0  0
   -8.5330   18.4792   67.4604 C   0  0  0  0  0  0  0  0  0  0  0  0
   -9.5433   18.2987   69.9938 O   0  0  0  0  0  0  0  0  0  0  0  0
   -9.1481   16.2876   65.9124 O   0  0  0  0  0  0  0  0  0  0  0  0
  -10.7304   14.0247   66.8209 C   0  0  0  0  0  0  0  0  0  0  0  0
  -11.1003   13.0895   66.2465 N   0  0  0  0  0  0  0  0  0  0  0  0
   -7.0275   18.2876   67.7219 C   0  0  0  0  0  0  0  0  0  0  0  0
  -10.0126   16.3511   72.1395 C   0  0  0  0  0  0  0  0  0  0  0  0
  -10.4883   16.2212   73.4591 C   0  0  0  0  0  0  0  0  0  0  0  0
  -11.8103   15.8022   73.6966 C   0  0  0  0  0  0  0  0  0  0  0  0
  -12.6594   15.5153   72.6113 C   0  0  0  0  0  0  0  0  0  0  0  0
  -12.1896   15.6561   71.2886 C   0  0  0  0  0  0  0  0  0  0  0  0
  -12.3486   15.5799   75.3255 Cl  0  0  0  0  0  0  0  0  0  0  0  0
   -6.5558   17.2018   67.9045 O   0  0  0  0  0  0  0  0  0  0  0  0
   -6.2800   19.2224   67.1755 N   0  0  0  0  0  0  0  0  0  0  0  0
   -5.1947   19.6532   66.9554 C   0  0  0  0  0  0  0  0  0  0  0  0
   -4.3788   19.9345   68.0509 C   0  0  0  0  0  0  0  0  0  0  0  0
   -2.9316   20.1296   67.8244 C   0  0  0  0  0  0  0  0  0  0  0  0
   -2.5575   20.1093   66.6768 C   0  0  0  0  0  0  0  0  0  0  0  0
   -3.2117   19.7694   65.5562 C   0  0  0  0  0  0  0  0  0  0  0  0
   -4.5707   19.4711   65.7051 C   0  0  0  0  0  0  0  0  0  0  0  0
   -4.9361   20.0699   69.4691 C   0  0  0  0  0  0  0  0  0  0  0  0
  1  2  2  0
  1  6  1  0
  1 11  1  0
  2  3  1  0
  3  4  1  0
  3  7  1  0
  4  9  2  0
  4  5  1  0
  5  6  1  0
  5  8  1  0
  6 10  2  0
  8 13  1  0
 11 12  3  0
 16 19  1  0
 13 20  2  0
 13 21  1  0
 21 22  1  0
 23 28  1  0
 22 23  2  0
 23 24  1  0
 24 25  2  0
 25 26  1  0
 26 27  2  0
 27 22  1  0
  7 18  2  0
 18 17  1  0
 17 16  2  0
 16 15  1  0
 15 14  2  0
 14  7  1  0
M  END

$$$$
No_57-gen_results_new/Mpro_initial_molecule_p3/2024-06-19-20-31-25/
     RDKit          3D

 27 29  0  0  0  0  0  0  0  0999 V2000
  -10.3383   15.1532   67.5971 C   0  0  0  0  0  0  0  0  0  0  0  0
  -10.7220   15.1619   68.8301 N   0  0  0  0  0  0  0  0  0  0  0  0
  -10.4044   16.2024   69.6852 N   0  0  0  0  0  0  0  0  0  0  0  0
   -9.7271   17.3221   69.2607 C   0  0  0  0  0  0  0  0  0  0  0  0
   -9.3095   17.3212   67.9557 N   0  0  0  0  0  0  0  0  0  0  0  0
   -9.5450   16.2958   67.0814 C   0  0  0  0  0  0  0  0  0  0  0  0
  -10.8644   16.0907   71.0374 C   0  0  0  0  0  0  0  0  0  0  0  0
   -8.5330   18.4792   67.4604 C   0  0  0  0  0  0  0  0  0  0  0  0
   -9.5433   18.2987   69.9938 O   0  0  0  0  0  0  0  0  0  0  0  0
   -9.1481   16.2876   65.9124 O   0  0  0  0  0  0  0  0  0  0  0  0
  -10.7304   14.0247   66.8209 C   0  0  0  0  0  0  0  0  0  0  0  0
  -11.1003   13.0895   66.2465 N   0  0  0  0  0  0  0  0  0  0  0  0
   -7.0275   18.2876   67.7219 C   0  0  0  0  0  0  0  0  0  0  0  0
  -10.0126   16.3511   72.1395 C   0  0  0  0  0  0  0  0  0  0  0  0
  -10.4883   16.2212   73.4591 C   0  0  0  0  0  0  0  0  0  0  0  0
  -11.8103   15.8022   73.6966 C   0  0  0  0  0  0  0  0  0  0  0  0
  -12.6594   15.5153   72.6113 C   0  0  0  0  0  0  0  0  0  0  0  0
  -12.1896   15.6561   71.2886 C   0  0  0  0  0  0  0  0  0  0  0  0
  -12.2484   15.6088   75.0145 O   0  0  0  0  0  0  0  0  0  0  0  0
   -6.4522   19.3083   67.8828 C   0  0  0  0  0  0  0  0  0  0  0  0
   -4.9672   19.3668   67.8788 C   0  0  0  0  0  0  0  0  0  0  0  0
   -4.2474   20.6434   68.0390 C   0  0  0  0  0  0  0  0  0  0  0  0
   -3.5696   21.1031   67.0346 C   0  0  0  0  0  0  0  0  0  0  0  0
   -3.1138   20.0676   66.1532 N   0  0  0  0  0  0  0  0  0  0  0  0
   -3.7679   18.8848   65.7899 C   0  0  0  0  0  0  0  0  0  0  0  0
   -4.7078   18.4648   66.8035 C   0  0  0  0  0  0  0  0  0  0  0  0
  -11.8479   14.7426   75.7203 C   0  0  0  0  0  0  0  0  0  0  0  0
  1  2  2  0
  1  6  1  0
  1 11  1  0
  2  3  1  0
  3  4  1  0
  3  7  1  0
  4  9  2  0
  4  5  1  0
  5  6  1  0
  5  8  1  0
  6 10  2  0
  8 13  1  0
 11 12  3  0
 16 19  1  0
 13 20  1  0
 20 21  1  0
 19 27  1  0
  7 18  2  0
 18 17  1  0
 17 16  2  0
 16 15  1  0
 15 14  2  0
 14  7  1  0
 21 22  2  0
 22 23  1  0
 23 24  2  0
 24 25  1  0
 25 26  2  0
 26 21  1  0
M  END

$$$$
No_58-gen_results_new/Mpro_initial_molecule_p3/2024-06-19-20-31-25/
     RDKit          3D

 28 30  0  0  0  0  0  0  0  0999 V2000
  -10.3383   15.1532   67.5971 C   0  0  0  0  0  0  0  0  0  0  0  0
  -10.7220   15.1619   68.8301 N   0  0  0  0  0  0  0  0  0  0  0  0
  -10.4044   16.2024   69.6852 N   0  0  0  0  0  0  0  0  0  0  0  0
   -9.7271   17.3221   69.2607 C   0  0  0  0  0  0  0  0  0  0  0  0
   -9.3095   17.3212   67.9557 N   0  0  0  0  0  0  0  0  0  0  0  0
   -9.5450   16.2958   67.0814 C   0  0  0  0  0  0  0  0  0  0  0  0
  -10.8644   16.0907   71.0374 C   0  0  0  0  0  0  0  0  0  0  0  0
   -8.5330   18.4792   67.4604 C   0  0  0  0  0  0  0  0  0  0  0  0
   -9.5433   18.2987   69.9938 O   0  0  0  0  0  0  0  0  0  0  0  0
   -9.1481   16.2876   65.9124 O   0  0  0  0  0  0  0  0  0  0  0  0
  -10.7304   14.0247   66.8209 C   0  0  0  0  0  0  0  0  0  0  0  0
  -11.1003   13.0895   66.2465 N   0  0  0  0  0  0  0  0  0  0  0  0
   -7.0275   18.2876   67.7219 C   0  0  0  0  0  0  0  0  0  0  0  0
  -10.0126   16.3511   72.1395 C   0  0  0  0  0  0  0  0  0  0  0  0
  -10.4883   16.2212   73.4591 C   0  0  0  0  0  0  0  0  0  0  0  0
  -11.8103   15.8022   73.6966 C   0  0  0  0  0  0  0  0  0  0  0  0
  -12.6594   15.5153   72.6113 C   0  0  0  0  0  0  0  0  0  0  0  0
  -12.1896   15.6561   71.2886 C   0  0  0  0  0  0  0  0  0  0  0  0
  -12.2768   15.6000   75.1088 C   0  0  0  0  0  0  0  0  0  0  0  0
   -6.3059   19.3590   66.9154 C   0  0  0  0  0  0  0  0  0  0  0  0
   -6.9578   20.4797   66.4322 C   0  0  0  0  0  0  0  0  0  0  0  0
   -8.3628   20.5494   66.3744 C   0  0  0  0  0  0  0  0  0  0  0  0
   -9.1835   19.4925   66.8327 C   0  0  0  0  0  0  0  0  0  0  0  0
  -11.9588   16.3229   75.9328 O   0  0  0  0  0  0  0  0  0  0  0  0
  -12.7880   14.4781   75.3676 O   0  0  0  0  0  0  0  0  0  0  0  0
   -6.0996   21.4744   65.9920 O   0  0  0  0  0  0  0  0  0  0  0  0
   -4.8311   19.3099   67.2005 C   0  0  0  0  0  0  0  0  0  0  0  0
   -4.2392   18.2174   67.1579 C   0  0  0  0  0  0  0  0  0  0  0  0
  1  2  2  0
  1  6  1  0
  1 11  1  0
  2  3  1  0
  3  4  1  0
  3  7  1  0
  4  9  2  0
  4  5  1  0
  5  6  1  0
  5  8  1  0
  6 10  2  0
 11 12  3  0
 16 19  1  0
 19 24  2  0
 19 25  1  0
 21 26  1  0
 20 27  1  0
 27 28  1  0
  8 13  2  0
 13 20  1  0
 20 21  2  0
 21 22  1  0
 22 23  2  0
 23  8  1  0
  7 18  2  0
 18 17  1  0
 17 16  2  0
 16 15  1  0
 15 14  2  0
 14  7  1  0
M  END

$$$$
No_59-gen_results_new/Mpro_initial_molecule_p3/2024-06-19-20-31-25/
     RDKit          3D

 25 27  0  0  0  0  0  0  0  0999 V2000
  -10.3383   15.1532   67.5971 C   0  0  0  0  0  0  0  0  0  0  0  0
  -10.7220   15.1619   68.8301 N   0  0  0  0  0  0  0  0  0  0  0  0
  -10.4044   16.2024   69.6852 N   0  0  0  0  0  0  0  0  0  0  0  0
   -9.7271   17.3221   69.2607 C   0  0  0  0  0  0  0  0  0  0  0  0
   -9.3095   17.3212   67.9557 N   0  0  0  0  0  0  0  0  0  0  0  0
   -9.5450   16.2958   67.0814 C   0  0  0  0  0  0  0  0  0  0  0  0
  -10.8644   16.0907   71.0374 C   0  0  0  0  0  0  0  0  0  0  0  0
   -8.5330   18.4792   67.4604 C   0  0  0  0  0  0  0  0  0  0  0  0
   -9.5433   18.2987   69.9938 O   0  0  0  0  0  0  0  0  0  0  0  0
   -9.1481   16.2876   65.9124 O   0  0  0  0  0  0  0  0  0  0  0  0
  -10.7304   14.0247   66.8209 C   0  0  0  0  0  0  0  0  0  0  0  0
  -11.1003   13.0895   66.2465 N   0  0  0  0  0  0  0  0  0  0  0  0
   -7.0275   18.2876   67.7219 C   0  0  0  0  0  0  0  0  0  0  0  0
  -10.0126   16.3511   72.1395 C   0  0  0  0  0  0  0  0  0  0  0  0
  -10.4883   16.2212   73.4591 C   0  0  0  0  0  0  0  0  0  0  0  0
  -11.8103   15.8022   73.6966 C   0  0  0  0  0  0  0  0  0  0  0  0
  -12.6594   15.5153   72.6113 C   0  0  0  0  0  0  0  0  0  0  0  0
  -12.1896   15.6561   71.2886 C   0  0  0  0  0  0  0  0  0  0  0  0
  -12.3486   15.5799   75.3255 Cl  0  0  0  0  0  0  0  0  0  0  0  0
   -6.5344   17.3734   68.3696 C   0  0  0  0  0  0  0  0  0  0  0  0
   -5.1249   17.1828   68.5820 C   0  0  0  0  0  0  0  0  0  0  0  0
   -4.4394   18.0509   67.8370 C   0  0  0  0  0  0  0  0  0  0  0  0
   -4.8624   19.0170   67.0983 N   0  0  0  0  0  0  0  0  0  0  0  0
   -6.2245   19.1454   66.9418 C   0  0  0  0  0  0  0  0  0  0  0  0
  -14.1197   14.9537   72.8037 C   0  0  0  0  0  0  0  0  0  0  0  0
  1  2  2  0
  1  6  1  0
  1 11  1  0
  2  3  1  0
  3  4  1  0
  3  7  1  0
  4  9  2  0
  4  5  1  0
  5  6  1  0
  5  8  1  0
  6 10  2  0
  8 13  1  0
 11 12  3  0
 16 19  1  0
 17 25  1  0
 13 20  2  0
 20 21  1  0
 21 22  2  0
 22 23  1  0
 23 24  2  0
 24 13  1  0
  7 18  2  0
 18 17  1  0
 17 16  2  0
 16 15  1  0
 15 14  2  0
 14  7  1  0
M  END

$$$$
No_60-gen_results_new/Mpro_initial_molecule_p3/2024-06-19-20-31-25/
     RDKit          3D

 28 30  0  0  0  0  0  0  0  0999 V2000
  -10.3383   15.1532   67.5971 C   0  0  0  0  0  0  0  0  0  0  0  0
  -10.7220   15.1619   68.8301 N   0  0  0  0  0  0  0  0  0  0  0  0
  -10.4044   16.2024   69.6852 N   0  0  0  0  0  0  0  0  0  0  0  0
   -9.7271   17.3221   69.2607 C   0  0  0  0  0  0  0  0  0  0  0  0
   -9.3095   17.3212   67.9557 N   0  0  0  0  0  0  0  0  0  0  0  0
   -9.5450   16.2958   67.0814 C   0  0  0  0  0  0  0  0  0  0  0  0
  -10.8644   16.0907   71.0374 C   0  0  0  0  0  0  0  0  0  0  0  0
   -8.5330   18.4792   67.4604 C   0  0  0  0  0  0  0  0  0  0  0  0
   -9.5433   18.2987   69.9938 O   0  0  0  0  0  0  0  0  0  0  0  0
   -9.1481   16.2876   65.9124 O   0  0  0  0  0  0  0  0  0  0  0  0
  -10.7304   14.0247   66.8209 C   0  0  0  0  0  0  0  0  0  0  0  0
  -11.1003   13.0895   66.2465 N   0  0  0  0  0  0  0  0  0  0  0  0
   -7.0275   18.2876   67.7219 C   0  0  0  0  0  0  0  0  0  0  0  0
  -10.0126   16.3511   72.1395 C   0  0  0  0  0  0  0  0  0  0  0  0
  -10.4883   16.2212   73.4591 C   0  0  0  0  0  0  0  0  0  0  0  0
  -11.8103   15.8022   73.6966 C   0  0  0  0  0  0  0  0  0  0  0  0
  -12.6594   15.5153   72.6113 C   0  0  0  0  0  0  0  0  0  0  0  0
  -12.1896   15.6561   71.2886 C   0  0  0  0  0  0  0  0  0  0  0  0
  -12.2768   15.6000   75.1088 C   0  0  0  0  0  0  0  0  0  0  0  0
   -6.4522   19.3092   67.8826 C   0  0  0  0  0  0  0  0  0  0  0  0
  -12.3537   14.5923   75.5994 O   0  0  0  0  0  0  0  0  0  0  0  0
  -12.8117   16.6654   75.6562 O   0  0  0  0  0  0  0  0  0  0  0  0
   -6.1044   19.5214   69.0722 C   0  0  0  0  0  0  0  0  0  0  0  0
   -5.6391   18.3226   69.7847 C   0  0  0  0  0  0  0  0  0  0  0  0
   -5.6164   17.3663   69.4658 C   0  0  0  0  0  0  0  0  0  0  0  0
   -6.9085   17.0463   68.4288 C   0  0  0  0  0  0  0  0  0  0  0  0
   -7.0672   20.5754   67.2095 C   0  0  0  0  0  0  0  0  0  0  0  0
   -8.3053   20.5303   66.5626 C   0  0  0  0  0  0  0  0  0  0  0  0
  1  2  2  0
  1  6  1  0
  1 11  1  0
  2  3  1  0
  3  4  1  0
  3  7  1  0
  4  9  2  0
  4  5  1  0
  5  6  1  0
  5  8  1  0
  6 10  2  0
  8 13  1  0
 11 12  3  0
 16 19  1  0
 19 21  2  0
 19 22  1  0
 20 27  1  0
 27 28  2  0
 13 20  2  0
 20 23  1  0
 23 24  2  0
 24 25  1  0
 25 26  2  0
 26 13  1  0
  7 18  2  0
 18 17  1  0
 17 16  2  0
 16 15  1  0
 15 14  2  0
 14  7  1  0
M  END

$$$$
No_61-gen_results_new/Mpro_initial_molecule_p3/2024-06-19-20-31-25/
     RDKit          3D

 28 30  0  0  0  0  0  0  0  0999 V2000
  -10.3383   15.1532   67.5971 C   0  0  0  0  0  0  0  0  0  0  0  0
  -10.7220   15.1619   68.8301 N   0  0  0  0  0  0  0  0  0  0  0  0
  -10.4044   16.2024   69.6852 N   0  0  0  0  0  0  0  0  0  0  0  0
   -9.7271   17.3221   69.2607 C   0  0  0  0  0  0  0  0  0  0  0  0
   -9.3095   17.3212   67.9557 N   0  0  0  0  0  0  0  0  0  0  0  0
   -9.5450   16.2958   67.0814 C   0  0  0  0  0  0  0  0  0  0  0  0
  -10.8644   16.0907   71.0374 C   0  0  0  0  0  0  0  0  0  0  0  0
   -8.5330   18.4792   67.4604 C   0  0  0  0  0  0  0  0  0  0  0  0
   -9.5433   18.2987   69.9938 O   0  0  0  0  0  0  0  0  0  0  0  0
   -9.1481   16.2876   65.9124 O   0  0  0  0  0  0  0  0  0  0  0  0
  -10.7304   14.0247   66.8209 C   0  0  0  0  0  0  0  0  0  0  0  0
  -11.1003   13.0895   66.2465 N   0  0  0  0  0  0  0  0  0  0  0  0
   -7.0275   18.2876   67.7219 C   0  0  0  0  0  0  0  0  0  0  0  0
  -10.0126   16.3511   72.1395 C   0  0  0  0  0  0  0  0  0  0  0  0
  -10.4883   16.2212   73.4591 C   0  0  0  0  0  0  0  0  0  0  0  0
  -11.8103   15.8022   73.6966 C   0  0  0  0  0  0  0  0  0  0  0  0
  -12.6594   15.5153   72.6113 C   0  0  0  0  0  0  0  0  0  0  0  0
  -12.1896   15.6561   71.2886 C   0  0  0  0  0  0  0  0  0  0  0  0
  -12.2768   15.6000   75.1088 C   0  0  0  0  0  0  0  0  0  0  0  0
   -6.3059   19.3590   66.9154 C   0  0  0  0  0  0  0  0  0  0  0  0
   -6.9578   20.4797   66.4322 C   0  0  0  0  0  0  0  0  0  0  0  0
   -6.1525   21.3253   65.7586 C   0  0  0  0  0  0  0  0  0  0  0  0
   -4.7519   21.2584   65.8433 C   0  0  0  0  0  0  0  0  0  0  0  0
   -4.1291   20.2465   66.5605 C   0  0  0  0  0  0  0  0  0  0  0  0
   -4.8972   19.2318   67.1366 C   0  0  0  0  0  0  0  0  0  0  0  0
  -11.9789   16.5268   75.8869 N   0  0  0  0  0  0  0  0  0  0  0  0
   -3.6524   22.4951   65.1539 Cl  0  0  0  0  0  0  0  0  0  0  0  0
  -12.3076   14.4521   75.4653 O   0  0  0  0  0  0  0  0  0  0  0  0
  1  2  2  0
  1  6  1  0
  1 11  1  0
  2  3  1  0
  3  4  1  0
  3  7  1  0
  4  9  2  0
  4  5  1  0
  5  6  1  0
  5  8  1  0
  6 10  2  0
  8 13  1  0
 11 12  3  0
 16 19  1  0
 13 20  1  0
 19 26  1  0
 23 27  1  0
 19 28  2  0
 20 21  2  0
 21 22  1  0
 22 23  2  0
 23 24  1  0
 24 25  2  0
 25 20  1  0
  7 18  2  0
 18 17  1  0
 17 16  2  0
 16 15  1  0
 15 14  2  0
 14  7  1  0
M  END

$$$$
No_62-gen_results_new/Mpro_initial_molecule_p3/2024-06-19-20-31-25/
     RDKit          3D

 24 25  0  0  0  0  0  0  0  0999 V2000
  -10.3383   15.1532   67.5971 C   0  0  0  0  0  0  0  0  0  0  0  0
  -10.7220   15.1619   68.8301 N   0  0  0  0  0  0  0  0  0  0  0  0
  -10.4044   16.2024   69.6852 N   0  0  0  0  0  0  0  0  0  0  0  0
   -9.7271   17.3221   69.2607 C   0  0  0  0  0  0  0  0  0  0  0  0
   -9.3095   17.3212   67.9557 N   0  0  0  0  0  0  0  0  0  0  0  0
   -9.5450   16.2958   67.0814 C   0  0  0  0  0  0  0  0  0  0  0  0
  -10.8644   16.0907   71.0374 C   0  0  0  0  0  0  0  0  0  0  0  0
   -8.5330   18.4792   67.4604 C   0  0  0  0  0  0  0  0  0  0  0  0
   -9.5433   18.2987   69.9938 O   0  0  0  0  0  0  0  0  0  0  0  0
   -9.1481   16.2876   65.9124 O   0  0  0  0  0  0  0  0  0  0  0  0
  -10.7304   14.0247   66.8209 C   0  0  0  0  0  0  0  0  0  0  0  0
  -11.1003   13.0895   66.2465 N   0  0  0  0  0  0  0  0  0  0  0  0
   -7.0275   18.2876   67.7219 C   0  0  0  0  0  0  0  0  0  0  0  0
  -10.0126   16.3511   72.1395 C   0  0  0  0  0  0  0  0  0  0  0  0
  -10.4883   16.2212   73.4591 C   0  0  0  0  0  0  0  0  0  0  0  0
  -11.8103   15.8022   73.6966 C   0  0  0  0  0  0  0  0  0  0  0  0
  -12.6594   15.5153   72.6113 C   0  0  0  0  0  0  0  0  0  0  0  0
  -12.1896   15.6561   71.2886 C   0  0  0  0  0  0  0  0  0  0  0  0
  -12.2768   15.6000   75.1088 C   0  0  0  0  0  0  0  0  0  0  0  0
   -6.3901   19.0612   66.8360 O   0  0  0  0  0  0  0  0  0  0  0  0
  -12.3539   14.5919   75.5991 O   0  0  0  0  0  0  0  0  0  0  0  0
  -12.4569   16.7006   75.7590 O   0  0  0  0  0  0  0  0  0  0  0  0
   -6.5790   17.5891   68.4957 O   0  0  0  0  0  0  0  0  0  0  0  0
  -14.3080   14.8845   72.8500 Cl  0  0  0  0  0  0  0  0  0  0  0  0
  1  2  2  0
  1  6  1  0
  1 11  1  0
  2  3  1  0
  3  4  1  0
  3  7  1  0
  4  9  2  0
  4  5  1  0
  5  6  1  0
  5  8  1  0
  6 10  2  0
  8 13  1  0
 11 12  3  0
 16 19  1  0
 13 20  2  0
 19 21  2  0
 19 22  1  0
 13 23  1  0
 17 24  1  0
  7 18  2  0
 18 17  1  0
 17 16  2  0
 16 15  1  0
 15 14  2  0
 14  7  1  0
M  END

$$$$
No_63-gen_results_new/Mpro_initial_molecule_p3/2024-06-19-20-31-25/
     RDKit          3D

 28 30  0  0  0  0  0  0  0  0999 V2000
  -10.3383   15.1532   67.5971 C   0  0  0  0  0  0  0  0  0  0  0  0
  -10.7220   15.1619   68.8301 N   0  0  0  0  0  0  0  0  0  0  0  0
  -10.4044   16.2024   69.6852 N   0  0  0  0  0  0  0  0  0  0  0  0
   -9.7271   17.3221   69.2607 C   0  0  0  0  0  0  0  0  0  0  0  0
   -9.3095   17.3212   67.9557 N   0  0  0  0  0  0  0  0  0  0  0  0
   -9.5450   16.2958   67.0814 C   0  0  0  0  0  0  0  0  0  0  0  0
  -10.8644   16.0907   71.0374 C   0  0  0  0  0  0  0  0  0  0  0  0
   -8.5330   18.4792   67.4604 C   0  0  0  0  0  0  0  0  0  0  0  0
   -9.5433   18.2987   69.9938 O   0  0  0  0  0  0  0  0  0  0  0  0
   -9.1481   16.2876   65.9124 O   0  0  0  0  0  0  0  0  0  0  0  0
  -10.7304   14.0247   66.8209 C   0  0  0  0  0  0  0  0  0  0  0  0
  -11.1003   13.0895   66.2465 N   0  0  0  0  0  0  0  0  0  0  0  0
   -7.0275   18.2876   67.7219 C   0  0  0  0  0  0  0  0  0  0  0  0
  -10.0126   16.3511   72.1395 C   0  0  0  0  0  0  0  0  0  0  0  0
  -10.4883   16.2212   73.4591 C   0  0  0  0  0  0  0  0  0  0  0  0
  -11.8103   15.8022   73.6966 C   0  0  0  0  0  0  0  0  0  0  0  0
  -12.6594   15.5153   72.6113 C   0  0  0  0  0  0  0  0  0  0  0  0
  -12.1896   15.6561   71.2886 C   0  0  0  0  0  0  0  0  0  0  0  0
  -12.3486   15.5799   75.3255 Cl  0  0  0  0  0  0  0  0  0  0  0  0
   -6.4523   19.3079   67.8835 C   0  0  0  0  0  0  0  0  0  0  0  0
   -6.2543   20.3849   67.0158 C   0  0  0  0  0  0  0  0  0  0  0  0
   -6.3457   20.0750   65.8013 C   0  0  0  0  0  0  0  0  0  0  0  0
   -5.5695   20.7218   64.7310 C   0  0  0  0  0  0  0  0  0  0  0  0
   -5.0146   21.9878   65.1220 C   0  0  0  0  0  0  0  0  0  0  0  0
   -4.0611   22.6839   64.3109 C   0  0  0  0  0  0  0  0  0  0  0  0
   -3.9780   22.2859   63.0117 C   0  0  0  0  0  0  0  0  0  0  0  0
   -4.6309   21.0301   62.5420 C   0  0  0  0  0  0  0  0  0  0  0  0
   -5.4402   20.3423   63.4157 C   0  0  0  0  0  0  0  0  0  0  0  0
  1  2  2  0
  1  6  1  0
  1 11  1  0
  2  3  1  0
  3  4  1  0
  3  7  1  0
  4  9  2  0
  4  5  1  0
  5  6  1  0
  5  8  1  0
  6 10  2  0
  8 13  1  0
 11 12  3  0
 16 19  1  0
 13 20  1  0
 20 21  1  0
 21 22  2  3
 22 23  1  0
 23 24  2  0
 24 25  1  0
 25 26  2  0
 26 27  1  0
 27 28  2  0
 28 23  1  0
  7 18  2  0
 18 17  1  0
 17 16  2  0
 16 15  1  0
 15 14  2  0
 14  7  1  0
M  END

$$$$
No_64-gen_results_new/Mpro_initial_molecule_p3/2024-06-19-20-31-25/
     RDKit          3D

 28 30  0  0  0  0  0  0  0  0999 V2000
  -10.3383   15.1532   67.5971 C   0  0  0  0  0  0  0  0  0  0  0  0
  -10.7220   15.1619   68.8301 N   0  0  0  0  0  0  0  0  0  0  0  0
  -10.4044   16.2024   69.6852 N   0  0  0  0  0  0  0  0  0  0  0  0
   -9.7271   17.3221   69.2607 C   0  0  0  0  0  0  0  0  0  0  0  0
   -9.3095   17.3212   67.9557 N   0  0  0  0  0  0  0  0  0  0  0  0
   -9.5450   16.2958   67.0814 C   0  0  0  0  0  0  0  0  0  0  0  0
  -10.8644   16.0907   71.0374 C   0  0  0  0  0  0  0  0  0  0  0  0
   -8.5330   18.4792   67.4604 C   0  0  0  0  0  0  0  0  0  0  0  0
   -9.5433   18.2987   69.9938 O   0  0  0  0  0  0  0  0  0  0  0  0
   -9.1481   16.2876   65.9124 O   0  0  0  0  0  0  0  0  0  0  0  0
  -10.7304   14.0247   66.8209 C   0  0  0  0  0  0  0  0  0  0  0  0
  -11.1003   13.0895   66.2465 N   0  0  0  0  0  0  0  0  0  0  0  0
   -7.0275   18.2876   67.7219 C   0  0  0  0  0  0  0  0  0  0  0  0
  -10.0126   16.3511   72.1395 C   0  0  0  0  0  0  0  0  0  0  0  0
  -10.4883   16.2212   73.4591 C   0  0  0  0  0  0  0  0  0  0  0  0
  -11.8103   15.8022   73.6966 C   0  0  0  0  0  0  0  0  0  0  0  0
  -12.6594   15.5153   72.6113 C   0  0  0  0  0  0  0  0  0  0  0  0
  -12.1896   15.6561   71.2886 C   0  0  0  0  0  0  0  0  0  0  0  0
  -12.2484   15.6088   75.0145 O   0  0  0  0  0  0  0  0  0  0  0  0
   -6.3059   19.3591   66.9155 C   0  0  0  0  0  0  0  0  0  0  0  0
   -4.9923   19.4463   66.9703 C   0  0  0  0  0  0  0  0  0  0  0  0
   -4.1607   20.6629   66.1420 Cl  0  0  0  0  0  0  0  0  0  0  0  0
  -12.3384   16.7900   75.7237 C   0  0  0  0  0  0  0  0  0  0  0  0
   -4.1117   18.3201   67.3942 C   0  0  0  0  0  0  0  0  0  0  0  0
   -4.8778   17.2747   68.1469 C   0  0  0  0  0  0  0  0  0  0  0  0
   -6.3805   17.2198   68.0936 C   0  0  0  0  0  0  0  0  0  0  0  0
  -14.0715   14.8956   72.8102 C   0  0  0  0  0  0  0  0  0  0  0  0
   -4.0928   16.0946   68.6085 C   0  0  0  0  0  0  0  0  0  0  0  0
  1  2  2  0
  1  6  1  0
  1 11  1  0
  2  3  1  0
  3  4  1  0
  3  7  1  0
  4  9  2  0
  4  5  1  0
  5  6  1  0
  5  8  1  0
  6 10  2  0
  8 13  1  0
 11 12  3  0
 16 19  1  0
 21 22  1  0
 19 23  1  0
 17 27  1  0
 25 28  1  0
 13 20  2  0
 20 21  1  0
 21 24  2  0
 24 25  1  0
 25 26  2  0
 26 13  1  0
  7 18  2  0
 18 17  1  0
 17 16  2  0
 16 15  1  0
 15 14  2  0
 14  7  1  0
M  END

$$$$
No_65-gen_results_new/Mpro_initial_molecule_p3/2024-06-19-20-31-25/
     RDKit          3D

 28 30  0  0  0  0  0  0  0  0999 V2000
  -10.3383   15.1532   67.5971 C   0  0  0  0  0  0  0  0  0  0  0  0
  -10.7220   15.1619   68.8301 N   0  0  0  0  0  0  0  0  0  0  0  0
  -10.4044   16.2024   69.6852 N   0  0  0  0  0  0  0  0  0  0  0  0
   -9.7271   17.3221   69.2607 C   0  0  0  0  0  0  0  0  0  0  0  0
   -9.3095   17.3212   67.9557 N   0  0  0  0  0  0  0  0  0  0  0  0
   -9.5450   16.2958   67.0814 C   0  0  0  0  0  0  0  0  0  0  0  0
  -10.8644   16.0907   71.0374 C   0  0  0  0  0  0  0  0  0  0  0  0
   -8.5330   18.4792   67.4604 C   0  0  0  0  0  0  0  0  0  0  0  0
   -9.5433   18.2987   69.9938 O   0  0  0  0  0  0  0  0  0  0  0  0
   -9.1481   16.2876   65.9124 O   0  0  0  0  0  0  0  0  0  0  0  0
  -10.7304   14.0247   66.8209 C   0  0  0  0  0  0  0  0  0  0  0  0
  -11.1003   13.0895   66.2465 N   0  0  0  0  0  0  0  0  0  0  0  0
   -7.0275   18.2876   67.7219 C   0  0  0  0  0  0  0  0  0  0  0  0
  -10.0126   16.3511   72.1395 C   0  0  0  0  0  0  0  0  0  0  0  0
  -10.4883   16.2212   73.4591 C   0  0  0  0  0  0  0  0  0  0  0  0
  -11.8103   15.8022   73.6966 C   0  0  0  0  0  0  0  0  0  0  0  0
  -12.6594   15.5153   72.6113 C   0  0  0  0  0  0  0  0  0  0  0  0
  -12.1896   15.6561   71.2886 C   0  0  0  0  0  0  0  0  0  0  0  0
  -12.3043   15.6890   75.0416 O   0  0  0  0  0  0  0  0  0  0  0  0
   -6.4521   19.3082   67.8825 C   0  0  0  0  0  0  0  0  0  0  0  0
   -5.0357   19.2426   67.8290 N   0  0  0  0  0  0  0  0  0  0  0  0
   -4.2210   20.2325   67.8455 C   0  0  0  0  0  0  0  0  0  0  0  0
   -2.8984   20.0135   67.3440 C   0  0  0  0  0  0  0  0  0  0  0  0
   -2.5369   18.6448   67.3153 C   0  0  0  0  0  0  0  0  0  0  0  0
   -4.5252   18.3312   66.8041 C   0  0  0  0  0  0  0  0  0  0  0  0
   -3.2853   17.9379   66.4871 C   0  0  0  0  0  0  0  0  0  0  0  0
  -11.8773   16.5694   75.9148 C   0  0  0  0  0  0  0  0  0  0  0  0
  -13.9574   14.9785   72.7790 F   0  0  0  0  0  0  0  0  0  0  0  0
  1  2  2  0
  1  6  1  0
  1 11  1  0
  2  3  1  0
  3  4  1  0
  3  7  1  0
  4  9  2  0
  4  5  1  0
  5  6  1  0
  5  8  1  0
  6 10  2  0
  8 13  1  0
 11 12  3  0
 16 19  1  0
 13 20  1  0
 20 21  1  0
 21 22  1  0
 22 23  1  0
 21 25  1  0
 24 26  1  0
 25 26  1  0
 19 27  1  0
 17 28  1  0
 23 24  1  0
  7 18  2  0
 18 17  1  0
 17 16  2  0
 16 15  1  0
 15 14  2  0
 14  7  1  0
M  END

$$$$
No_66-gen_results_new/Mpro_initial_molecule_p3/2024-06-19-20-31-25/
     RDKit          3D

 28 30  0  0  0  0  0  0  0  0999 V2000
  -10.3383   15.1532   67.5971 C   0  0  0  0  0  0  0  0  0  0  0  0
  -10.7220   15.1619   68.8301 N   0  0  0  0  0  0  0  0  0  0  0  0
  -10.4044   16.2024   69.6852 N   0  0  0  0  0  0  0  0  0  0  0  0
   -9.7271   17.3221   69.2607 C   0  0  0  0  0  0  0  0  0  0  0  0
   -9.3095   17.3212   67.9557 N   0  0  0  0  0  0  0  0  0  0  0  0
   -9.5450   16.2958   67.0814 C   0  0  0  0  0  0  0  0  0  0  0  0
  -10.8644   16.0907   71.0374 C   0  0  0  0  0  0  0  0  0  0  0  0
   -8.5330   18.4792   67.4604 C   0  0  0  0  0  0  0  0  0  0  0  0
   -9.5433   18.2987   69.9938 O   0  0  0  0  0  0  0  0  0  0  0  0
   -9.1481   16.2876   65.9124 O   0  0  0  0  0  0  0  0  0  0  0  0
  -10.7304   14.0247   66.8209 C   0  0  0  0  0  0  0  0  0  0  0  0
  -11.1003   13.0895   66.2465 N   0  0  0  0  0  0  0  0  0  0  0  0
   -7.0275   18.2876   67.7219 C   0  0  0  0  0  0  0  0  0  0  0  0
  -10.0126   16.3511   72.1395 C   0  0  0  0  0  0  0  0  0  0  0  0
  -10.4883   16.2212   73.4591 C   0  0  0  0  0  0  0  0  0  0  0  0
  -11.8103   15.8022   73.6966 C   0  0  0  0  0  0  0  0  0  0  0  0
  -12.6594   15.5153   72.6113 C   0  0  0  0  0  0  0  0  0  0  0  0
  -12.1896   15.6561   71.2886 C   0  0  0  0  0  0  0  0  0  0  0  0
  -12.3486   15.5799   75.3255 Cl  0  0  0  0  0  0  0  0  0  0  0  0
   -6.5558   17.2018   67.9045 O   0  0  0  0  0  0  0  0  0  0  0  0
   -6.4130   19.3147   68.0692 N   0  0  0  0  0  0  0  0  0  0  0  0
   -4.9879   19.3264   68.2155 C   0  0  0  0  0  0  0  0  0  0  0  0
   -4.1519   19.7512   67.1575 C   0  0  0  0  0  0  0  0  0  0  0  0
   -4.4996   20.7361   66.2422 C   0  0  0  0  0  0  0  0  0  0  0  0
   -3.6852   21.3296   65.3512 C   0  0  0  0  0  0  0  0  0  0  0  0
   -2.3599   20.7803   65.3143 C   0  0  0  0  0  0  0  0  0  0  0  0
   -2.8465   19.4434   67.1335 C   0  0  0  0  0  0  0  0  0  0  0  0
   -1.9567   19.8987   66.2027 N   0  0  0  0  0  0  0  0  0  0  0  0
  1  2  2  0
  1  6  1  0
  1 11  1  0
  2  3  1  0
  3  4  1  0
  3  7  1  0
  4  9  2  0
  4  5  1  0
  5  6  1  0
  5  8  1  0
  6 10  2  0
  8 13  1  0
 11 12  3  0
 16 19  1  0
 13 20  2  0
 13 21  1  0
 21 22  1  0
 22 23  1  0
 23 24  2  0
 24 25  1  0
 25 26  2  0
 26 28  1  0
 28 27  2  0
 27 23  1  0
  7 18  2  0
 18 17  1  0
 17 16  2  0
 16 15  1  0
 15 14  2  0
 14  7  1  0
M  END

$$$$
No_67-gen_results_new/Mpro_initial_molecule_p3/2024-06-19-20-31-25/
     RDKit          3D

 28 30  0  0  0  0  0  0  0  0999 V2000
  -10.3383   15.1532   67.5971 C   0  0  0  0  0  0  0  0  0  0  0  0
  -10.7220   15.1619   68.8301 N   0  0  0  0  0  0  0  0  0  0  0  0
  -10.4044   16.2024   69.6852 N   0  0  0  0  0  0  0  0  0  0  0  0
   -9.7271   17.3221   69.2607 C   0  0  0  0  0  0  0  0  0  0  0  0
   -9.3095   17.3212   67.9557 N   0  0  0  0  0  0  0  0  0  0  0  0
   -9.5450   16.2958   67.0814 C   0  0  0  0  0  0  0  0  0  0  0  0
  -10.8644   16.0907   71.0374 C   0  0  0  0  0  0  0  0  0  0  0  0
   -8.5330   18.4792   67.4604 C   0  0  0  0  0  0  0  0  0  0  0  0
   -9.5433   18.2987   69.9938 O   0  0  0  0  0  0  0  0  0  0  0  0
   -9.1481   16.2876   65.9124 O   0  0  0  0  0  0  0  0  0  0  0  0
  -10.7304   14.0247   66.8209 C   0  0  0  0  0  0  0  0  0  0  0  0
  -11.1003   13.0895   66.2465 N   0  0  0  0  0  0  0  0  0  0  0  0
   -7.0275   18.2876   67.7219 C   0  0  0  0  0  0  0  0  0  0  0  0
  -10.0126   16.3511   72.1395 C   0  0  0  0  0  0  0  0  0  0  0  0
  -10.4883   16.2212   73.4591 C   0  0  0  0  0  0  0  0  0  0  0  0
  -11.8103   15.8022   73.6966 C   0  0  0  0  0  0  0  0  0  0  0  0
  -12.6594   15.5153   72.6113 C   0  0  0  0  0  0  0  0  0  0  0  0
  -12.1896   15.6561   71.2886 C   0  0  0  0  0  0  0  0  0  0  0  0
  -12.3486   15.5799   75.3255 Cl  0  0  0  0  0  0  0  0  0  0  0  0
   -6.3058   19.3592   66.9157 C   0  0  0  0  0  0  0  0  0  0  0  0
   -4.9894   19.4433   66.9687 C   0  0  0  0  0  0  0  0  0  0  0  0
   -4.2710   18.3392   67.6547 C   0  0  0  0  0  0  0  0  0  0  0  0
   -5.0430   17.2550   68.3049 C   0  0  0  0  0  0  0  0  0  0  0  0
   -6.4241   17.2326   68.1847 C   0  0  0  0  0  0  0  0  0  0  0  0
   -4.2773   20.3487   66.4184 O   0  0  0  0  0  0  0  0  0  0  0  0
   -4.7495   21.5431   66.1882 C   0  0  0  0  0  0  0  0  0  0  0  0
   -3.6828   22.4138   65.4493 C   0  0  0  0  0  0  0  0  0  0  0  0
   -3.3667   21.9568   64.2729 N   0  0  0  0  0  0  0  0  0  0  0  0
  1  2  2  0
  1  6  1  0
  1 11  1  0
  2  3  1  0
  3  4  1  0
  3  7  1  0
  4  9  2  0
  4  5  1  0
  5  6  1  0
  5  8  1  0
  6 10  2  0
  8 13  1  0
 11 12  3  0
 16 19  1  0
 21 25  1  0
 25 26  1  0
 26 27  1  0
 27 28  1  0
 13 20  2  0
 20 21  1  0
 21 22  2  0
 22 23  1  0
 23 24  2  0
 24 13  1  0
  7 18  2  0
 18 17  1  0
 17 16  2  0
 16 15  1  0
 15 14  2  0
 14  7  1  0
M  END

$$$$
No_68-gen_results_new/Mpro_initial_molecule_p3/2024-06-19-20-31-25/
     RDKit          3D

 28 30  0  0  0  0  0  0  0  0999 V2000
  -10.3383   15.1532   67.5971 C   0  0  0  0  0  0  0  0  0  0  0  0
  -10.7220   15.1619   68.8301 N   0  0  0  0  0  0  0  0  0  0  0  0
  -10.4044   16.2024   69.6852 N   0  0  0  0  0  0  0  0  0  0  0  0
   -9.7271   17.3221   69.2607 C   0  0  0  0  0  0  0  0  0  0  0  0
   -9.3095   17.3212   67.9557 N   0  0  0  0  0  0  0  0  0  0  0  0
   -9.5450   16.2958   67.0814 C   0  0  0  0  0  0  0  0  0  0  0  0
  -10.8644   16.0907   71.0374 C   0  0  0  0  0  0  0  0  0  0  0  0
   -8.5330   18.4792   67.4604 C   0  0  0  0  0  0  0  0  0  0  0  0
   -9.5433   18.2987   69.9938 O   0  0  0  0  0  0  0  0  0  0  0  0
   -9.1481   16.2876   65.9124 O   0  0  0  0  0  0  0  0  0  0  0  0
  -10.7304   14.0247   66.8209 C   0  0  0  0  0  0  0  0  0  0  0  0
  -11.1003   13.0895   66.2465 N   0  0  0  0  0  0  0  0  0  0  0  0
   -7.0275   18.2876   67.7219 C   0  0  0  0  0  0  0  0  0  0  0  0
  -10.0126   16.3511   72.1395 C   0  0  0  0  0  0  0  0  0  0  0  0
  -10.4883   16.2212   73.4591 C   0  0  0  0  0  0  0  0  0  0  0  0
  -11.8103   15.8022   73.6966 C   0  0  0  0  0  0  0  0  0  0  0  0
  -12.6594   15.5153   72.6113 C   0  0  0  0  0  0  0  0  0  0  0  0
  -12.1896   15.6561   71.2886 C   0  0  0  0  0  0  0  0  0  0  0  0
  -12.2768   15.6000   75.1088 C   0  0  0  0  0  0  0  0  0  0  0  0
   -6.3059   19.3590   66.9154 C   0  0  0  0  0  0  0  0  0  0  0  0
   -4.9893   19.4432   66.9685 C   0  0  0  0  0  0  0  0  0  0  0  0
   -4.2710   18.3392   67.6545 C   0  0  0  0  0  0  0  0  0  0  0  0
   -4.9781   17.3867   68.3942 C   0  0  0  0  0  0  0  0  0  0  0  0
   -6.4101   17.3287   68.3026 C   0  0  0  0  0  0  0  0  0  0  0  0
  -12.5816   16.5945   75.6960 O   0  0  0  0  0  0  0  0  0  0  0  0
  -11.8938   14.5561   75.6562 O   0  0  0  0  0  0  0  0  0  0  0  0
   -4.2215   20.4081   66.2847 C   0  0  0  0  0  0  0  0  0  0  0  0
   -4.0619   20.3311   64.9461 C   0  0  0  0  0  0  0  0  0  0  0  0
  1  2  2  0
  1  6  1  0
  1 11  1  0
  2  3  1  0
  3  4  1  0
  3  7  1  0
  4  9  2  0
  4  5  1  0
  5  6  1  0
  5  8  1  0
  6 10  2  0
  8 13  1  0
 11 12  3  0
 16 19  1  0
 19 25  2  0
 19 26  1  0
 21 27  1  0
 27 28  1  0
 13 20  2  0
 20 21  1  0
 21 22  2  0
 22 23  1  0
 23 24  2  0
 24 13  1  0
  7 18  2  0
 18 17  1  0
 17 16  2  0
 16 15  1  0
 15 14  2  0
 14  7  1  0
M  END

$$$$
No_69-gen_results_new/Mpro_initial_molecule_p3/2024-06-19-20-31-25/
     RDKit          3D

 28 30  0  0  0  0  0  0  0  0999 V2000
  -10.3383   15.1532   67.5971 C   0  0  0  0  0  0  0  0  0  0  0  0
  -10.7220   15.1619   68.8301 N   0  0  0  0  0  0  0  0  0  0  0  0
  -10.4044   16.2024   69.6852 N   0  0  0  0  0  0  0  0  0  0  0  0
   -9.7271   17.3221   69.2607 C   0  0  0  0  0  0  0  0  0  0  0  0
   -9.3095   17.3212   67.9557 N   0  0  0  0  0  0  0  0  0  0  0  0
   -9.5450   16.2958   67.0814 C   0  0  0  0  0  0  0  0  0  0  0  0
  -10.8644   16.0907   71.0374 C   0  0  0  0  0  0  0  0  0  0  0  0
   -8.5330   18.4792   67.4604 C   0  0  0  0  0  0  0  0  0  0  0  0
   -9.5433   18.2987   69.9938 O   0  0  0  0  0  0  0  0  0  0  0  0
   -9.1481   16.2876   65.9124 O   0  0  0  0  0  0  0  0  0  0  0  0
  -10.7304   14.0247   66.8209 C   0  0  0  0  0  0  0  0  0  0  0  0
  -11.1003   13.0895   66.2465 N   0  0  0  0  0  0  0  0  0  0  0  0
   -7.0275   18.2876   67.7219 C   0  0  0  0  0  0  0  0  0  0  0  0
  -10.0126   16.3511   72.1395 C   0  0  0  0  0  0  0  0  0  0  0  0
  -10.4883   16.2212   73.4591 C   0  0  0  0  0  0  0  0  0  0  0  0
  -11.8103   15.8022   73.6966 C   0  0  0  0  0  0  0  0  0  0  0  0
  -12.6594   15.5153   72.6113 C   0  0  0  0  0  0  0  0  0  0  0  0
  -12.1896   15.6561   71.2886 C   0  0  0  0  0  0  0  0  0  0  0  0
  -12.2768   15.6000   75.1088 C   0  0  0  0  0  0  0  0  0  0  0  0
   -6.5341   17.3729   68.3685 C   0  0  0  0  0  0  0  0  0  0  0  0
   -5.1249   17.1827   68.5818 C   0  0  0  0  0  0  0  0  0  0  0  0
   -4.4393   18.0516   67.8378 C   0  0  0  0  0  0  0  0  0  0  0  0
   -4.8689   19.0478   67.0695 C   0  0  0  0  0  0  0  0  0  0  0  0
   -6.2627   19.1643   66.9261 C   0  0  0  0  0  0  0  0  0  0  0  0
  -12.3528   14.5927   75.5996 O   0  0  0  0  0  0  0  0  0  0  0  0
  -12.4570   16.7014   75.7580 O   0  0  0  0  0  0  0  0  0  0  0  0
  -14.0786   14.9549   72.8137 C   0  0  0  0  0  0  0  0  0  0  0  0
   -4.0872   19.9305   66.3676 O   0  0  0  0  0  0  0  0  0  0  0  0
  1  2  2  0
  1  6  1  0
  1 11  1  0
  2  3  1  0
  3  4  1  0
  3  7  1  0
  4  9  2  0
  4  5  1  0
  5  6  1  0
  5  8  1  0
  6 10  2  0
  8 13  1  0
 11 12  3  0
 16 19  1  0
 19 25  2  0
 19 26  1  0
 17 27  1  0
 23 28  1  0
 13 20  2  0
 20 21  1  0
 21 22  2  0
 22 23  1  0
 23 24  2  0
 24 13  1  0
  7 18  2  0
 18 17  1  0
 17 16  2  0
 16 15  1  0
 15 14  2  0
 14  7  1  0
M  END

$$$$
No_70-gen_results_new/Mpro_initial_molecule_p3/2024-06-19-20-31-25/
     RDKit          3D

 27 29  0  0  0  0  0  0  0  0999 V2000
  -10.3383   15.1532   67.5971 C   0  0  0  0  0  0  0  0  0  0  0  0
  -10.7220   15.1619   68.8301 N   0  0  0  0  0  0  0  0  0  0  0  0
  -10.4044   16.2024   69.6852 N   0  0  0  0  0  0  0  0  0  0  0  0
   -9.7271   17.3221   69.2607 C   0  0  0  0  0  0  0  0  0  0  0  0
   -9.3095   17.3212   67.9557 N   0  0  0  0  0  0  0  0  0  0  0  0
   -9.5450   16.2958   67.0814 C   0  0  0  0  0  0  0  0  0  0  0  0
  -10.8644   16.0907   71.0374 C   0  0  0  0  0  0  0  0  0  0  0  0
   -8.5330   18.4792   67.4604 C   0  0  0  0  0  0  0  0  0  0  0  0
   -9.5433   18.2987   69.9938 O   0  0  0  0  0  0  0  0  0  0  0  0
   -9.1481   16.2876   65.9124 O   0  0  0  0  0  0  0  0  0  0  0  0
  -10.7304   14.0247   66.8209 C   0  0  0  0  0  0  0  0  0  0  0  0
  -11.1003   13.0895   66.2465 N   0  0  0  0  0  0  0  0  0  0  0  0
   -7.0275   18.2876   67.7219 C   0  0  0  0  0  0  0  0  0  0  0  0
  -10.0126   16.3511   72.1395 C   0  0  0  0  0  0  0  0  0  0  0  0
  -10.4883   16.2212   73.4591 C   0  0  0  0  0  0  0  0  0  0  0  0
  -11.8103   15.8022   73.6966 C   0  0  0  0  0  0  0  0  0  0  0  0
  -12.6594   15.5153   72.6113 C   0  0  0  0  0  0  0  0  0  0  0  0
  -12.1896   15.6561   71.2886 C   0  0  0  0  0  0  0  0  0  0  0  0
  -12.3486   15.5799   75.3255 Cl  0  0  0  0  0  0  0  0  0  0  0  0
   -6.5344   17.3734   68.3696 C   0  0  0  0  0  0  0  0  0  0  0  0
   -5.1310   17.1884   68.5570 C   0  0  0  0  0  0  0  0  0  0  0  0
   -6.2282   19.1878   66.9085 C   0  0  0  0  0  0  0  0  0  0  0  0
   -4.8273   19.0031   67.0387 C   0  0  0  0  0  0  0  0  0  0  0  0
   -4.5044   16.1236   69.3654 C   0  0  0  0  0  0  0  0  0  0  0  0
   -4.2982   17.9760   67.7757 C   0  0  0  0  0  0  0  0  0  0  0  0
   -4.6057   14.7715   68.9822 C   0  0  0  0  0  0  0  0  0  0  0  0
   -3.9876   13.7629   69.7099 C   0  0  0  0  0  0  0  0  0  0  0  0
  1  2  2  0
  1  6  1  0
  1 11  1  0
  2  3  1  0
  3  4  1  0
  3  7  1  0
  4  9  2  0
  4  5  1  0
  5  6  1  0
  5  8  1  0
  6 10  2  0
  8 13  1  0
 11 12  3  0
 16 19  1  0
 21 24  1  0
 24 26  1  0
 26 27  2  0
 13 20  2  0
 20 21  1  0
 21 25  2  0
 25 23  1  0
 23 22  2  0
 22 13  1  0
  7 18  2  0
 18 17  1  0
 17 16  2  0
 16 15  1  0
 15 14  2  0
 14  7  1  0
M  END

$$$$
No_71-gen_results_new/Mpro_initial_molecule_p3/2024-06-19-20-31-25/
     RDKit          3D

 28 30  0  0  0  0  0  0  0  0999 V2000
  -10.3383   15.1532   67.5971 C   0  0  0  0  0  0  0  0  0  0  0  0
  -10.7220   15.1619   68.8301 N   0  0  0  0  0  0  0  0  0  0  0  0
  -10.4044   16.2024   69.6852 N   0  0  0  0  0  0  0  0  0  0  0  0
   -9.7271   17.3221   69.2607 C   0  0  0  0  0  0  0  0  0  0  0  0
   -9.3095   17.3212   67.9557 N   0  0  0  0  0  0  0  0  0  0  0  0
   -9.5450   16.2958   67.0814 C   0  0  0  0  0  0  0  0  0  0  0  0
  -10.8644   16.0907   71.0374 C   0  0  0  0  0  0  0  0  0  0  0  0
   -8.5330   18.4792   67.4604 C   0  0  0  0  0  0  0  0  0  0  0  0
   -9.5433   18.2987   69.9938 O   0  0  0  0  0  0  0  0  0  0  0  0
   -9.1481   16.2876   65.9124 O   0  0  0  0  0  0  0  0  0  0  0  0
  -10.7304   14.0247   66.8209 C   0  0  0  0  0  0  0  0  0  0  0  0
  -11.1003   13.0895   66.2465 N   0  0  0  0  0  0  0  0  0  0  0  0
   -7.0275   18.2876   67.7219 C   0  0  0  0  0  0  0  0  0  0  0  0
  -10.0126   16.3511   72.1395 C   0  0  0  0  0  0  0  0  0  0  0  0
  -10.4883   16.2212   73.4591 C   0  0  0  0  0  0  0  0  0  0  0  0
  -11.8103   15.8022   73.6966 C   0  0  0  0  0  0  0  0  0  0  0  0
  -12.6594   15.5153   72.6113 C   0  0  0  0  0  0  0  0  0  0  0  0
  -12.1896   15.6561   71.2886 C   0  0  0  0  0  0  0  0  0  0  0  0
  -12.3486   15.5799   75.3255 Cl  0  0  0  0  0  0  0  0  0  0  0  0
   -6.4523   19.3079   67.8835 C   0  0  0  0  0  0  0  0  0  0  0  0
   -4.9276   19.3344   68.2144 C   0  0  0  0  0  0  0  0  0  0  0  0
   -4.3480   18.0902   68.0015 C   0  0  0  0  0  0  0  0  0  0  0  0
   -5.0944   16.9337   67.6810 C   0  0  0  0  0  0  0  0  0  0  0  0
   -6.5498   17.0237   67.5636 C   0  0  0  0  0  0  0  0  0  0  0  0
   -4.2338   20.4190   68.3839 O   0  0  0  0  0  0  0  0  0  0  0  0
   -3.4157   20.2657   69.4626 C   0  0  0  0  0  0  0  0  0  0  0  0
   -2.6263   21.2680   69.5364 O   0  0  0  0  0  0  0  0  0  0  0  0
   -3.2543   19.1907   70.1669 N   0  0  0  0  0  0  0  0  0  0  0  0
  1  2  2  0
  1  6  1  0
  1 11  1  0
  2  3  1  0
  3  4  1  0
  3  7  1  0
  4  9  2  0
  4  5  1  0
  5  6  1  0
  5  8  1  0
  6 10  2  0
  8 13  1  0
 11 12  3  0
 16 19  1  0
 21 25  1  0
 25 26  1  0
 26 27  2  0
 26 28  1  0
 13 20  2  0
 20 21  1  0
 21 22  2  0
 22 23  1  0
 23 24  2  0
 24 13  1  0
  7 18  2  0
 18 17  1  0
 17 16  2  0
 16 15  1  0
 15 14  2  0
 14  7  1  0
M  END

$$$$
No_72-gen_results_new/Mpro_initial_molecule_p3/2024-06-19-20-31-25/
     RDKit          3D

 28 30  0  0  0  0  0  0  0  0999 V2000
  -10.3383   15.1532   67.5971 C   0  0  0  0  0  0  0  0  0  0  0  0
  -10.7220   15.1619   68.8301 N   0  0  0  0  0  0  0  0  0  0  0  0
  -10.4044   16.2024   69.6852 N   0  0  0  0  0  0  0  0  0  0  0  0
   -9.7271   17.3221   69.2607 C   0  0  0  0  0  0  0  0  0  0  0  0
   -9.3095   17.3212   67.9557 N   0  0  0  0  0  0  0  0  0  0  0  0
   -9.5450   16.2958   67.0814 C   0  0  0  0  0  0  0  0  0  0  0  0
  -10.8644   16.0907   71.0374 C   0  0  0  0  0  0  0  0  0  0  0  0
   -8.5330   18.4792   67.4604 C   0  0  0  0  0  0  0  0  0  0  0  0
   -9.5433   18.2987   69.9938 O   0  0  0  0  0  0  0  0  0  0  0  0
   -9.1481   16.2876   65.9124 O   0  0  0  0  0  0  0  0  0  0  0  0
  -10.7304   14.0247   66.8209 C   0  0  0  0  0  0  0  0  0  0  0  0
  -11.1003   13.0895   66.2465 N   0  0  0  0  0  0  0  0  0  0  0  0
   -7.0275   18.2876   67.7219 C   0  0  0  0  0  0  0  0  0  0  0  0
  -10.0126   16.3511   72.1395 C   0  0  0  0  0  0  0  0  0  0  0  0
  -10.4883   16.2212   73.4591 C   0  0  0  0  0  0  0  0  0  0  0  0
  -11.8103   15.8022   73.6966 C   0  0  0  0  0  0  0  0  0  0  0  0
  -12.6594   15.5153   72.6113 C   0  0  0  0  0  0  0  0  0  0  0  0
  -12.1896   15.6561   71.2886 C   0  0  0  0  0  0  0  0  0  0  0  0
  -12.2768   15.6000   75.1088 C   0  0  0  0  0  0  0  0  0  0  0  0
   -6.5341   17.3729   68.3685 C   0  0  0  0  0  0  0  0  0  0  0  0
   -5.1308   17.1882   68.5568 C   0  0  0  0  0  0  0  0  0  0  0  0
   -6.3132   19.4047   67.2946 C   0  0  0  0  0  0  0  0  0  0  0  0
   -4.9040   19.2890   67.4766 C   0  0  0  0  0  0  0  0  0  0  0  0
   -4.3512   18.1958   68.1017 C   0  0  0  0  0  0  0  0  0  0  0  0
  -12.3515   14.5927   75.5999 O   0  0  0  0  0  0  0  0  0  0  0  0
  -12.4199   16.7492   75.8001 N   0  0  0  0  0  0  0  0  0  0  0  0
   -3.9337   20.6174   66.9749 Cl  0  0  0  0  0  0  0  0  0  0  0  0
  -14.0758   14.9555   72.8301 C   0  0  0  0  0  0  0  0  0  0  0  0
  1  2  2  0
  1  6  1  0
  1 11  1  0
  2  3  1  0
  3  4  1  0
  3  7  1  0
  4  9  2  0
  4  5  1  0
  5  6  1  0
  5  8  1  0
  6 10  2  0
  8 13  1  0
 11 12  3  0
 16 19  1  0
 19 25  2  0
 19 26  1  0
 23 27  1  0
 17 28  1  0
 13 20  2  0
 20 21  1  0
 21 24  2  0
 24 23  1  0
 23 22  2  0
 22 13  1  0
  7 18  2  0
 18 17  1  0
 17 16  2  0
 16 15  1  0
 15 14  2  0
 14  7  1  0
M  END

$$$$
No_73-gen_results_new/Mpro_initial_molecule_p3/2024-06-19-20-31-25/
     RDKit          3D

 28 30  0  0  0  0  0  0  0  0999 V2000
  -10.3383   15.1532   67.5971 C   0  0  0  0  0  0  0  0  0  0  0  0
  -10.7220   15.1619   68.8301 N   0  0  0  0  0  0  0  0  0  0  0  0
  -10.4044   16.2024   69.6852 N   0  0  0  0  0  0  0  0  0  0  0  0
   -9.7271   17.3221   69.2607 C   0  0  0  0  0  0  0  0  0  0  0  0
   -9.3095   17.3212   67.9557 N   0  0  0  0  0  0  0  0  0  0  0  0
   -9.5450   16.2958   67.0814 C   0  0  0  0  0  0  0  0  0  0  0  0
  -10.8644   16.0907   71.0374 C   0  0  0  0  0  0  0  0  0  0  0  0
   -8.5330   18.4792   67.4604 C   0  0  0  0  0  0  0  0  0  0  0  0
   -9.5433   18.2987   69.9938 O   0  0  0  0  0  0  0  0  0  0  0  0
   -9.1481   16.2876   65.9124 O   0  0  0  0  0  0  0  0  0  0  0  0
  -10.7304   14.0247   66.8209 C   0  0  0  0  0  0  0  0  0  0  0  0
  -11.1003   13.0895   66.2465 N   0  0  0  0  0  0  0  0  0  0  0  0
   -7.0275   18.2876   67.7219 C   0  0  0  0  0  0  0  0  0  0  0  0
  -10.0126   16.3511   72.1395 C   0  0  0  0  0  0  0  0  0  0  0  0
  -10.4883   16.2212   73.4591 C   0  0  0  0  0  0  0  0  0  0  0  0
  -11.8103   15.8022   73.6966 C   0  0  0  0  0  0  0  0  0  0  0  0
  -12.6594   15.5153   72.6113 C   0  0  0  0  0  0  0  0  0  0  0  0
  -12.1896   15.6561   71.2886 C   0  0  0  0  0  0  0  0  0  0  0  0
  -12.3282   15.6698   75.1036 C   0  0  0  0  0  0  0  0  0  0  0  0
   -6.5339   17.3728   68.3682 C   0  0  0  0  0  0  0  0  0  0  0  0
   -5.0715   17.5392   68.5415 C   0  0  0  0  0  0  0  0  0  0  0  0
   -4.2817   18.2419   67.7596 C   0  0  0  0  0  0  0  0  0  0  0  0
   -4.9172   19.1700   66.9512 C   0  0  0  0  0  0  0  0  0  0  0  0
   -6.3136   19.1612   66.8065 C   0  0  0  0  0  0  0  0  0  0  0  0
  -12.4173   14.6913   75.6189 O   0  0  0  0  0  0  0  0  0  0  0  0
  -12.3571   16.7661   75.7510 O   0  0  0  0  0  0  0  0  0  0  0  0
  -13.9845   15.0242   72.8052 O   0  0  0  0  0  0  0  0  0  0  0  0
   -4.0923   20.0900   66.1336 C   0  0  0  0  0  0  0  0  0  0  0  0
  1  2  2  0
  1  6  1  0
  1 11  1  0
  2  3  1  0
  3  4  1  0
  3  7  1  0
  4  9  2  0
  4  5  1  0
  5  6  1  0
  5  8  1  0
  6 10  2  0
  8 13  1  0
 11 12  3  0
 16 19  1  0
 19 25  2  0
 19 26  1  0
 17 27  1  0
 23 28  1  0
 13 20  2  0
 20 21  1  0
 21 22  2  0
 22 23  1  0
 23 24  2  0
 24 13  1  0
  7 18  2  0
 18 17  1  0
 17 16  2  0
 16 15  1  0
 15 14  2  0
 14  7  1  0
M  END

$$$$
No_74-gen_results_new/Mpro_initial_molecule_p3/2024-06-19-20-31-25/
     RDKit          3D

 28 30  0  0  0  0  0  0  0  0999 V2000
  -10.3383   15.1532   67.5971 C   0  0  0  0  0  0  0  0  0  0  0  0
  -10.7220   15.1619   68.8301 N   0  0  0  0  0  0  0  0  0  0  0  0
  -10.4044   16.2024   69.6852 N   0  0  0  0  0  0  0  0  0  0  0  0
   -9.7271   17.3221   69.2607 C   0  0  0  0  0  0  0  0  0  0  0  0
   -9.3095   17.3212   67.9557 N   0  0  0  0  0  0  0  0  0  0  0  0
   -9.5450   16.2958   67.0814 C   0  0  0  0  0  0  0  0  0  0  0  0
  -10.8644   16.0907   71.0374 C   0  0  0  0  0  0  0  0  0  0  0  0
   -8.5330   18.4792   67.4604 C   0  0  0  0  0  0  0  0  0  0  0  0
   -9.5433   18.2987   69.9938 O   0  0  0  0  0  0  0  0  0  0  0  0
   -9.1481   16.2876   65.9124 O   0  0  0  0  0  0  0  0  0  0  0  0
  -10.7304   14.0247   66.8209 C   0  0  0  0  0  0  0  0  0  0  0  0
  -11.1003   13.0895   66.2465 N   0  0  0  0  0  0  0  0  0  0  0  0
   -7.0275   18.2876   67.7219 C   0  0  0  0  0  0  0  0  0  0  0  0
  -10.0126   16.3511   72.1395 C   0  0  0  0  0  0  0  0  0  0  0  0
  -10.4883   16.2212   73.4591 C   0  0  0  0  0  0  0  0  0  0  0  0
  -11.8103   15.8022   73.6966 C   0  0  0  0  0  0  0  0  0  0  0  0
  -12.6594   15.5153   72.6113 C   0  0  0  0  0  0  0  0  0  0  0  0
  -12.1896   15.6561   71.2886 C   0  0  0  0  0  0  0  0  0  0  0  0
  -12.2768   15.6000   75.1088 C   0  0  0  0  0  0  0  0  0  0  0  0
   -6.5341   17.3729   68.3685 C   0  0  0  0  0  0  0  0  0  0  0  0
   -5.0715   17.5390   68.5416 C   0  0  0  0  0  0  0  0  0  0  0  0
   -4.2817   18.2416   67.7594 C   0  0  0  0  0  0  0  0  0  0  0  0
   -4.9171   19.1696   66.9510 C   0  0  0  0  0  0  0  0  0  0  0  0
   -6.3135   19.1610   66.8064 C   0  0  0  0  0  0  0  0  0  0  0  0
  -12.6570   14.5401   75.4421 F   0  0  0  0  0  0  0  0  0  0  0  0
  -11.2451   15.8549   75.9503 F   0  0  0  0  0  0  0  0  0  0  0  0
  -13.2790   16.5811   75.3047 F   0  0  0  0  0  0  0  0  0  0  0  0
  -13.9237   15.0182   72.8297 F   0  0  0  0  0  0  0  0  0  0  0  0
  1  2  2  0
  1  6  1  0
  1 11  1  0
  2  3  1  0
  3  4  1  0
  3  7  1  0
  4  9  2  0
  4  5  1  0
  5  6  1  0
  5  8  1  0
  6 10  2  0
  8 13  1  0
 11 12  3  0
 16 19  1  0
 19 25  1  0
 19 26  1  0
 19 27  1  0
 17 28  1  0
 13 20  2  0
 20 21  1  0
 21 22  2  0
 22 23  1  0
 23 24  2  0
 24 13  1  0
  7 18  2  0
 18 17  1  0
 17 16  2  0
 16 15  1  0
 15 14  2  0
 14  7  1  0
M  END

$$$$
No_75-gen_results_new/Mpro_initial_molecule_p3/2024-06-19-20-31-25/
     RDKit          3D

 28 30  0  0  0  0  0  0  0  0999 V2000
  -10.3383   15.1532   67.5971 C   0  0  0  0  0  0  0  0  0  0  0  0
  -10.7220   15.1619   68.8301 N   0  0  0  0  0  0  0  0  0  0  0  0
  -10.4044   16.2024   69.6852 N   0  0  0  0  0  0  0  0  0  0  0  0
   -9.7271   17.3221   69.2607 C   0  0  0  0  0  0  0  0  0  0  0  0
   -9.3095   17.3212   67.9557 N   0  0  0  0  0  0  0  0  0  0  0  0
   -9.5450   16.2958   67.0814 C   0  0  0  0  0  0  0  0  0  0  0  0
  -10.8644   16.0907   71.0374 C   0  0  0  0  0  0  0  0  0  0  0  0
   -8.5330   18.4792   67.4604 C   0  0  0  0  0  0  0  0  0  0  0  0
   -9.5433   18.2987   69.9938 O   0  0  0  0  0  0  0  0  0  0  0  0
   -9.1481   16.2876   65.9124 O   0  0  0  0  0  0  0  0  0  0  0  0
  -10.7304   14.0247   66.8209 C   0  0  0  0  0  0  0  0  0  0  0  0
  -11.1003   13.0895   66.2465 N   0  0  0  0  0  0  0  0  0  0  0  0
   -7.0275   18.2876   67.7219 C   0  0  0  0  0  0  0  0  0  0  0  0
  -10.0126   16.3511   72.1395 C   0  0  0  0  0  0  0  0  0  0  0  0
  -10.4883   16.2212   73.4591 C   0  0  0  0  0  0  0  0  0  0  0  0
  -11.8103   15.8022   73.6966 C   0  0  0  0  0  0  0  0  0  0  0  0
  -12.6594   15.5153   72.6113 C   0  0  0  0  0  0  0  0  0  0  0  0
  -12.1896   15.6561   71.2886 C   0  0  0  0  0  0  0  0  0  0  0  0
  -12.3486   15.5799   75.3255 Cl  0  0  0  0  0  0  0  0  0  0  0  0
   -6.5558   17.2018   67.9045 O   0  0  0  0  0  0  0  0  0  0  0  0
   -6.4130   19.3147   68.0692 N   0  0  0  0  0  0  0  0  0  0  0  0
   -5.0756   19.6793   68.2968 C   0  0  0  0  0  0  0  0  0  0  0  0
   -4.7671   19.6580   69.6590 C   0  0  0  0  0  0  0  0  0  0  0  0
   -3.3674   19.9416   69.9991 C   0  0  0  0  0  0  0  0  0  0  0  0
   -2.4931   20.3077   69.0497 C   0  0  0  0  0  0  0  0  0  0  0  0
   -2.8596   20.2758   67.6724 C   0  0  0  0  0  0  0  0  0  0  0  0
   -4.2036   20.0829   67.3560 C   0  0  0  0  0  0  0  0  0  0  0  0
   -5.5830   19.3091   70.7144 N   0  0  0  0  0  0  0  0  0  0  0  0
  1  2  2  0
  1  6  1  0
  1 11  1  0
  2  3  1  0
  3  4  1  0
  3  7  1  0
  4  9  2  0
  4  5  1  0
  5  6  1  0
  5  8  1  0
  6 10  2  0
  8 13  1  0
 11 12  3  0
 16 19  1  0
 13 20  2  0
 13 21  1  0
 21 22  1  0
 23 28  1  0
 22 23  2  0
 23 24  1  0
 24 25  2  0
 25 26  1  0
 26 27  2  0
 27 22  1  0
  7 18  2  0
 18 17  1  0
 17 16  2  0
 16 15  1  0
 15 14  2  0
 14  7  1  0
M  END

$$$$
No_76-gen_results_new/Mpro_initial_molecule_p3/2024-06-19-20-31-25/
     RDKit          3D

 27 29  0  0  0  0  0  0  0  0999 V2000
  -10.3383   15.1532   67.5971 C   0  0  0  0  0  0  0  0  0  0  0  0
  -10.7220   15.1619   68.8301 N   0  0  0  0  0  0  0  0  0  0  0  0
  -10.4044   16.2024   69.6852 N   0  0  0  0  0  0  0  0  0  0  0  0
   -9.7271   17.3221   69.2607 C   0  0  0  0  0  0  0  0  0  0  0  0
   -9.3095   17.3212   67.9557 N   0  0  0  0  0  0  0  0  0  0  0  0
   -9.5450   16.2958   67.0814 C   0  0  0  0  0  0  0  0  0  0  0  0
  -10.8644   16.0907   71.0374 C   0  0  0  0  0  0  0  0  0  0  0  0
   -8.5330   18.4792   67.4604 C   0  0  0  0  0  0  0  0  0  0  0  0
   -9.5433   18.2987   69.9938 O   0  0  0  0  0  0  0  0  0  0  0  0
   -9.1481   16.2876   65.9124 O   0  0  0  0  0  0  0  0  0  0  0  0
  -10.7304   14.0247   66.8209 C   0  0  0  0  0  0  0  0  0  0  0  0
  -11.1003   13.0895   66.2465 N   0  0  0  0  0  0  0  0  0  0  0  0
   -7.0275   18.2876   67.7219 C   0  0  0  0  0  0  0  0  0  0  0  0
  -10.0126   16.3511   72.1395 C   0  0  0  0  0  0  0  0  0  0  0  0
  -10.4883   16.2212   73.4591 C   0  0  0  0  0  0  0  0  0  0  0  0
  -11.8103   15.8022   73.6966 C   0  0  0  0  0  0  0  0  0  0  0  0
  -12.6594   15.5153   72.6113 C   0  0  0  0  0  0  0  0  0  0  0  0
  -12.1896   15.6561   71.2886 C   0  0  0  0  0  0  0  0  0  0  0  0
  -12.3486   15.5799   75.3255 Cl  0  0  0  0  0  0  0  0  0  0  0  0
   -6.5558   17.2018   67.9045 O   0  0  0  0  0  0  0  0  0  0  0  0
   -6.3090   19.3658   67.4558 N   0  0  0  0  0  0  0  0  0  0  0  0
   -5.0861   19.8317   67.3904 C   0  0  0  0  0  0  0  0  0  0  0  0
   -4.3998   19.9209   68.6167 C   0  0  0  0  0  0  0  0  0  0  0  0
   -3.3924   19.5530   68.9661 N   0  0  0  0  0  0  0  0  0  0  0  0
   -2.4172   19.4579   67.8533 C   0  0  0  0  0  0  0  0  0  0  0  0
   -4.2220   19.7554   66.3121 C   0  0  0  0  0  0  0  0  0  0  0  0
   -2.8586   19.5017   66.5608 C   0  0  0  0  0  0  0  0  0  0  0  0
  1  2  2  0
  1  6  1  0
  1 11  1  0
  2  3  1  0
  3  4  1  0
  3  7  1  0
  4  9  2  0
  4  5  1  0
  5  6  1  0
  5  8  1  0
  6 10  2  0
  8 13  1  0
 11 12  3  0
 16 19  1  0
 13 20  2  0
 13 21  1  0
 21 22  1  0
 22 23  2  0
 23 24  1  0
 24 25  2  0
 25 27  1  0
 27 26  2  0
 26 22  1  0
  7 18  2  0
 18 17  1  0
 17 16  2  0
 16 15  1  0
 15 14  2  0
 14  7  1  0
M  END

$$$$
No_77-gen_results_new/Mpro_initial_molecule_p3/2024-06-19-20-31-25/
     RDKit          3D

 28 30  0  0  0  0  0  0  0  0999 V2000
  -10.3383   15.1532   67.5971 C   0  0  0  0  0  0  0  0  0  0  0  0
  -10.7220   15.1619   68.8301 N   0  0  0  0  0  0  0  0  0  0  0  0
  -10.4044   16.2024   69.6852 N   0  0  0  0  0  0  0  0  0  0  0  0
   -9.7271   17.3221   69.2607 C   0  0  0  0  0  0  0  0  0  0  0  0
   -9.3095   17.3212   67.9557 N   0  0  0  0  0  0  0  0  0  0  0  0
   -9.5450   16.2958   67.0814 C   0  0  0  0  0  0  0  0  0  0  0  0
  -10.8644   16.0907   71.0374 C   0  0  0  0  0  0  0  0  0  0  0  0
   -8.5330   18.4792   67.4604 C   0  0  0  0  0  0  0  0  0  0  0  0
   -9.5433   18.2987   69.9938 O   0  0  0  0  0  0  0  0  0  0  0  0
   -9.1481   16.2876   65.9124 O   0  0  0  0  0  0  0  0  0  0  0  0
  -10.7304   14.0247   66.8209 C   0  0  0  0  0  0  0  0  0  0  0  0
  -11.1003   13.0895   66.2465 N   0  0  0  0  0  0  0  0  0  0  0  0
   -7.0275   18.2876   67.7219 C   0  0  0  0  0  0  0  0  0  0  0  0
  -10.0126   16.3511   72.1395 C   0  0  0  0  0  0  0  0  0  0  0  0
  -10.4883   16.2212   73.4591 C   0  0  0  0  0  0  0  0  0  0  0  0
  -11.8103   15.8022   73.6966 C   0  0  0  0  0  0  0  0  0  0  0  0
  -12.6594   15.5153   72.6113 C   0  0  0  0  0  0  0  0  0  0  0  0
  -12.1896   15.6561   71.2886 C   0  0  0  0  0  0  0  0  0  0  0  0
  -12.3486   15.5799   75.3255 Cl  0  0  0  0  0  0  0  0  0  0  0  0
   -6.4523   19.3079   67.8835 C   0  0  0  0  0  0  0  0  0  0  0  0
   -6.2032   19.5449   69.0280 C   0  0  0  0  0  0  0  0  0  0  0  0
   -5.0283   20.3340   69.5330 C   0  0  0  0  0  0  0  0  0  0  0  0
   -4.1491   20.7182   68.5748 C   0  0  0  0  0  0  0  0  0  0  0  0
   -4.2143   20.2842   67.2305 C   0  0  0  0  0  0  0  0  0  0  0  0
   -5.3299   19.5322   66.8708 C   0  0  0  0  0  0  0  0  0  0  0  0
   -3.3767   20.7406   66.2519 O   0  0  0  0  0  0  0  0  0  0  0  0
   -3.1195   21.6882   65.9013 C   0  0  0  0  0  0  0  0  0  0  0  0
   -4.1097   22.5926   65.3289 C   0  0  0  0  0  0  0  0  0  0  0  0
  1  2  2  0
  1  6  1  0
  1 11  1  0
  2  3  1  0
  3  4  1  0
  3  7  1  0
  4  9  2  0
  4  5  1  0
  5  6  1  0
  5  8  1  0
  6 10  2  0
  8 13  1  0
 11 12  3  0
 16 19  1  0
 13 20  1  0
 24 26  1  0
 26 27  1  0
 27 28  1  0
 20 21  2  0
 21 22  1  0
 22 23  2  0
 23 24  1  0
 24 25  2  0
 25 20  1  0
  7 18  2  0
 18 17  1  0
 17 16  2  0
 16 15  1  0
 15 14  2  0
 14  7  1  0
M  END

$$$$
No_78-gen_results_new/Mpro_initial_molecule_p3/2024-06-19-20-31-25/
     RDKit          3D

 28 30  0  0  0  0  0  0  0  0999 V2000
  -10.3383   15.1532   67.5971 C   0  0  0  0  0  0  0  0  0  0  0  0
  -10.7220   15.1619   68.8301 N   0  0  0  0  0  0  0  0  0  0  0  0
  -10.4044   16.2024   69.6852 N   0  0  0  0  0  0  0  0  0  0  0  0
   -9.7271   17.3221   69.2607 C   0  0  0  0  0  0  0  0  0  0  0  0
   -9.3095   17.3212   67.9557 N   0  0  0  0  0  0  0  0  0  0  0  0
   -9.5450   16.2958   67.0814 C   0  0  0  0  0  0  0  0  0  0  0  0
  -10.8644   16.0907   71.0374 C   0  0  0  0  0  0  0  0  0  0  0  0
   -8.5330   18.4792   67.4604 C   0  0  0  0  0  0  0  0  0  0  0  0
   -9.5433   18.2987   69.9938 O   0  0  0  0  0  0  0  0  0  0  0  0
   -9.1481   16.2876   65.9124 O   0  0  0  0  0  0  0  0  0  0  0  0
  -10.7304   14.0247   66.8209 C   0  0  0  0  0  0  0  0  0  0  0  0
  -11.1003   13.0895   66.2465 N   0  0  0  0  0  0  0  0  0  0  0  0
   -7.0275   18.2876   67.7219 C   0  0  0  0  0  0  0  0  0  0  0  0
  -10.0126   16.3511   72.1395 C   0  0  0  0  0  0  0  0  0  0  0  0
  -10.4883   16.2212   73.4591 C   0  0  0  0  0  0  0  0  0  0  0  0
  -11.8103   15.8022   73.6966 C   0  0  0  0  0  0  0  0  0  0  0  0
  -12.6594   15.5153   72.6113 C   0  0  0  0  0  0  0  0  0  0  0  0
  -12.1896   15.6561   71.2886 C   0  0  0  0  0  0  0  0  0  0  0  0
  -12.2484   15.6088   75.0145 O   0  0  0  0  0  0  0  0  0  0  0  0
   -6.3059   19.3591   66.9155 C   0  0  0  0  0  0  0  0  0  0  0  0
   -4.9923   19.4463   66.9703 C   0  0  0  0  0  0  0  0  0  0  0  0
   -4.2717   18.3411   67.6555 C   0  0  0  0  0  0  0  0  0  0  0  0
   -5.0436   17.2562   68.3053 C   0  0  0  0  0  0  0  0  0  0  0  0
   -6.4249   17.2341   68.1852 C   0  0  0  0  0  0  0  0  0  0  0  0
  -11.8452   14.7439   75.7170 C   0  0  0  0  0  0  0  0  0  0  0  0
   -4.2043   20.4305   66.3816 C   0  0  0  0  0  0  0  0  0  0  0  0
   -2.8583   20.4544   66.5593 C   0  0  0  0  0  0  0  0  0  0  0  0
   -2.0896   21.5950   65.9450 C   0  0  0  0  0  0  0  0  0  0  0  0
  1  2  2  0
  1  6  1  0
  1 11  1  0
  2  3  1  0
  3  4  1  0
  3  7  1  0
  4  9  2  0
  4  5  1  0
  5  6  1  0
  5  8  1  0
  6 10  2  0
  8 13  1  0
 11 12  3  0
 16 19  1  0
 19 25  1  0
 21 26  1  0
 26 27  2  3
 27 28  1  0
 13 20  2  0
 20 21  1  0
 21 22  2  0
 22 23  1  0
 23 24  2  0
 24 13  1  0
  7 18  2  0
 18 17  1  0
 17 16  2  0
 16 15  1  0
 15 14  2  0
 14  7  1  0
M  END

$$$$
No_79-gen_results_new/Mpro_initial_molecule_p3/2024-06-19-20-31-25/
     RDKit          3D

 27 29  0  0  0  0  0  0  0  0999 V2000
  -10.3383   15.1532   67.5971 C   0  0  0  0  0  0  0  0  0  0  0  0
  -10.7220   15.1619   68.8301 N   0  0  0  0  0  0  0  0  0  0  0  0
  -10.4044   16.2024   69.6852 N   0  0  0  0  0  0  0  0  0  0  0  0
   -9.7271   17.3221   69.2607 C   0  0  0  0  0  0  0  0  0  0  0  0
   -9.3095   17.3212   67.9557 N   0  0  0  0  0  0  0  0  0  0  0  0
   -9.5450   16.2958   67.0814 C   0  0  0  0  0  0  0  0  0  0  0  0
  -10.8644   16.0907   71.0374 C   0  0  0  0  0  0  0  0  0  0  0  0
   -8.5330   18.4792   67.4604 C   0  0  0  0  0  0  0  0  0  0  0  0
   -9.5433   18.2987   69.9938 O   0  0  0  0  0  0  0  0  0  0  0  0
   -9.1481   16.2876   65.9124 O   0  0  0  0  0  0  0  0  0  0  0  0
  -10.7304   14.0247   66.8209 C   0  0  0  0  0  0  0  0  0  0  0  0
  -11.1003   13.0895   66.2465 N   0  0  0  0  0  0  0  0  0  0  0  0
   -7.0275   18.2876   67.7219 C   0  0  0  0  0  0  0  0  0  0  0  0
  -10.0126   16.3511   72.1395 C   0  0  0  0  0  0  0  0  0  0  0  0
  -10.4883   16.2212   73.4591 C   0  0  0  0  0  0  0  0  0  0  0  0
  -11.8103   15.8022   73.6966 C   0  0  0  0  0  0  0  0  0  0  0  0
  -12.6594   15.5153   72.6113 C   0  0  0  0  0  0  0  0  0  0  0  0
  -12.1896   15.6561   71.2886 C   0  0  0  0  0  0  0  0  0  0  0  0
  -12.2768   15.6000   75.1088 C   0  0  0  0  0  0  0  0  0  0  0  0
   -6.4522   19.3092   67.8826 C   0  0  0  0  0  0  0  0  0  0  0  0
  -11.9582   16.3232   75.9332 O   0  0  0  0  0  0  0  0  0  0  0  0
   -6.1226   19.5247   69.0654 C   0  0  0  0  0  0  0  0  0  0  0  0
  -13.1713   14.8306   75.3286 O   0  0  0  0  0  0  0  0  0  0  0  0
   -5.6560   18.3316   69.7884 C   0  0  0  0  0  0  0  0  0  0  0  0
   -6.2222   17.0316   69.4659 C   0  0  0  0  0  0  0  0  0  0  0  0
   -7.0257   17.0624   68.3870 C   0  0  0  0  0  0  0  0  0  0  0  0
   -7.0472   20.6597   67.2737 C   0  0  0  0  0  0  0  0  0  0  0  0
  1  2  2  0
  1  6  1  0
  1 11  1  0
  2  3  1  0
  3  4  1  0
  3  7  1  0
  4  9  2  0
  4  5  1  0
  5  6  1  0
  5  8  1  0
  6 10  2  0
  8 13  1  0
 11 12  3  0
 16 19  1  0
 19 21  2  0
 19 23  1  0
 20 27  1  0
 13 20  2  0
 20 22  1  0
 22 24  2  0
 24 25  1  0
 25 26  2  0
 26 13  1  0
  7 18  2  0
 18 17  1  0
 17 16  2  0
 16 15  1  0
 15 14  2  0
 14  7  1  0
M  END

$$$$
No_80-gen_results_new/Mpro_initial_molecule_p3/2024-06-19-20-31-25/
     RDKit          3D

 26 27  0  0  0  0  0  0  0  0999 V2000
  -10.3383   15.1532   67.5971 C   0  0  0  0  0  0  0  0  0  0  0  0
  -10.7220   15.1619   68.8301 N   0  0  0  0  0  0  0  0  0  0  0  0
  -10.4044   16.2024   69.6852 N   0  0  0  0  0  0  0  0  0  0  0  0
   -9.7271   17.3221   69.2607 C   0  0  0  0  0  0  0  0  0  0  0  0
   -9.3095   17.3212   67.9557 N   0  0  0  0  0  0  0  0  0  0  0  0
   -9.5450   16.2958   67.0814 C   0  0  0  0  0  0  0  0  0  0  0  0
  -10.8644   16.0907   71.0374 C   0  0  0  0  0  0  0  0  0  0  0  0
   -8.5330   18.4792   67.4604 C   0  0  0  0  0  0  0  0  0  0  0  0
   -9.5433   18.2987   69.9938 O   0  0  0  0  0  0  0  0  0  0  0  0
   -9.1481   16.2876   65.9124 O   0  0  0  0  0  0  0  0  0  0  0  0
  -10.7304   14.0247   66.8209 C   0  0  0  0  0  0  0  0  0  0  0  0
  -11.1003   13.0895   66.2465 N   0  0  0  0  0  0  0  0  0  0  0  0
   -7.0275   18.2876   67.7219 C   0  0  0  0  0  0  0  0  0  0  0  0
  -10.0126   16.3511   72.1395 C   0  0  0  0  0  0  0  0  0  0  0  0
  -10.4883   16.2212   73.4591 C   0  0  0  0  0  0  0  0  0  0  0  0
  -11.8103   15.8022   73.6966 C   0  0  0  0  0  0  0  0  0  0  0  0
  -12.6594   15.5153   72.6113 C   0  0  0  0  0  0  0  0  0  0  0  0
  -12.1896   15.6561   71.2886 C   0  0  0  0  0  0  0  0  0  0  0  0
  -12.2768   15.6000   75.1088 C   0  0  0  0  0  0  0  0  0  0  0  0
   -6.5556   17.2014   67.9036 O   0  0  0  0  0  0  0  0  0  0  0  0
   -6.4128   19.3144   68.0692 N   0  0  0  0  0  0  0  0  0  0  0  0
  -12.5822   16.5950   75.6952 O   0  0  0  0  0  0  0  0  0  0  0  0
  -11.8942   14.5566   75.6573 O   0  0  0  0  0  0  0  0  0  0  0  0
   -4.9879   19.3266   68.2184 C   0  0  0  0  0  0  0  0  0  0  0  0
   -4.1539   19.7565   67.1572 C   0  0  0  0  0  0  0  0  0  0  0  0
   -2.7684   19.8908   67.4287 C   0  0  0  0  0  0  0  0  0  0  0  0
  1  2  2  0
  1  6  1  0
  1 11  1  0
  2  3  1  0
  3  4  1  0
  3  7  1  0
  4  9  2  0
  4  5  1  0
  5  6  1  0
  5  8  1  0
  6 10  2  0
  8 13  1  0
 11 12  3  0
 16 19  1  0
 13 20  2  0
 13 21  1  0
 19 22  2  0
 19 23  1  0
 21 24  1  0
 24 25  1  0
 25 26  2  0
  7 18  2  0
 18 17  1  0
 17 16  2  0
 16 15  1  0
 15 14  2  0
 14  7  1  0
M  END

$$$$
No_81-gen_results_new/Mpro_initial_molecule_p3/2024-06-19-20-31-25/
     RDKit          3D

 28 30  0  0  0  0  0  0  0  0999 V2000
  -10.3383   15.1532   67.5971 C   0  0  0  0  0  0  0  0  0  0  0  0
  -10.7220   15.1619   68.8301 N   0  0  0  0  0  0  0  0  0  0  0  0
  -10.4044   16.2024   69.6852 N   0  0  0  0  0  0  0  0  0  0  0  0
   -9.7271   17.3221   69.2607 C   0  0  0  0  0  0  0  0  0  0  0  0
   -9.3095   17.3212   67.9557 N   0  0  0  0  0  0  0  0  0  0  0  0
   -9.5450   16.2958   67.0814 C   0  0  0  0  0  0  0  0  0  0  0  0
  -10.8644   16.0907   71.0374 C   0  0  0  0  0  0  0  0  0  0  0  0
   -8.5330   18.4792   67.4604 C   0  0  0  0  0  0  0  0  0  0  0  0
   -9.5433   18.2987   69.9938 O   0  0  0  0  0  0  0  0  0  0  0  0
   -9.1481   16.2876   65.9124 O   0  0  0  0  0  0  0  0  0  0  0  0
  -10.7304   14.0247   66.8209 C   0  0  0  0  0  0  0  0  0  0  0  0
  -11.1003   13.0895   66.2465 N   0  0  0  0  0  0  0  0  0  0  0  0
   -7.0275   18.2876   67.7219 C   0  0  0  0  0  0  0  0  0  0  0  0
  -10.0126   16.3511   72.1395 C   0  0  0  0  0  0  0  0  0  0  0  0
  -10.4883   16.2212   73.4591 C   0  0  0  0  0  0  0  0  0  0  0  0
  -11.8103   15.8022   73.6966 C   0  0  0  0  0  0  0  0  0  0  0  0
  -12.6594   15.5153   72.6113 C   0  0  0  0  0  0  0  0  0  0  0  0
  -12.1896   15.6561   71.2886 C   0  0  0  0  0  0  0  0  0  0  0  0
  -12.2768   15.6000   75.1088 C   0  0  0  0  0  0  0  0  0  0  0  0
   -6.5341   17.3729   68.3685 C   0  0  0  0  0  0  0  0  0  0  0  0
   -5.2032   17.6239   68.8100 C   0  0  0  0  0  0  0  0  0  0  0  0
   -4.3964   18.3715   68.1918 C   0  0  0  0  0  0  0  0  0  0  0  0
   -4.9307   19.3254   67.3303 C   0  0  0  0  0  0  0  0  0  0  0  0
   -6.2857   19.2677   67.0136 C   0  0  0  0  0  0  0  0  0  0  0  0
  -12.3532   14.5927   75.5995 O   0  0  0  0  0  0  0  0  0  0  0  0
  -12.4208   16.7487   75.8004 N   0  0  0  0  0  0  0  0  0  0  0  0
   -6.6346   20.2776   66.0157 C   0  0  0  0  0  0  0  0  0  0  0  0
   -8.2613   20.2454   65.9327 N   0  0  0  0  0  0  0  0  0  0  0  0
  1  2  2  0
  1  6  1  0
  1 11  1  0
  2  3  1  0
  3  4  1  0
  3  7  1  0
  4  9  2  0
  4  5  1  0
  5  6  1  0
  5  8  1  0
  6 10  2  0
  8 13  1  0
 11 12  3  0
 16 19  1  0
 19 25  2  0
 19 26  1  0
 24 27  1  0
 27 28  1  0
 13 20  2  0
 20 21  1  0
 21 22  2  0
 22 23  1  0
 23 24  2  0
 24 13  1  0
  7 18  2  0
 18 17  1  0
 17 16  2  0
 16 15  1  0
 15 14  2  0
 14  7  1  0
M  END

$$$$
No_82-gen_results_new/Mpro_initial_molecule_p3/2024-06-19-20-31-25/
     RDKit          3D

 28 30  0  0  0  0  0  0  0  0999 V2000
  -10.3383   15.1532   67.5971 C   0  0  0  0  0  0  0  0  0  0  0  0
  -10.7220   15.1619   68.8301 N   0  0  0  0  0  0  0  0  0  0  0  0
  -10.4044   16.2024   69.6852 N   0  0  0  0  0  0  0  0  0  0  0  0
   -9.7271   17.3221   69.2607 C   0  0  0  0  0  0  0  0  0  0  0  0
   -9.3095   17.3212   67.9557 N   0  0  0  0  0  0  0  0  0  0  0  0
   -9.5450   16.2958   67.0814 C   0  0  0  0  0  0  0  0  0  0  0  0
  -10.8644   16.0907   71.0374 C   0  0  0  0  0  0  0  0  0  0  0  0
   -8.5330   18.4792   67.4604 C   0  0  0  0  0  0  0  0  0  0  0  0
   -9.5433   18.2987   69.9938 O   0  0  0  0  0  0  0  0  0  0  0  0
   -9.1481   16.2876   65.9124 O   0  0  0  0  0  0  0  0  0  0  0  0
  -10.7304   14.0247   66.8209 C   0  0  0  0  0  0  0  0  0  0  0  0
  -11.1003   13.0895   66.2465 N   0  0  0  0  0  0  0  0  0  0  0  0
   -7.0275   18.2876   67.7219 C   0  0  0  0  0  0  0  0  0  0  0  0
  -10.0126   16.3511   72.1395 C   0  0  0  0  0  0  0  0  0  0  0  0
  -10.4883   16.2212   73.4591 C   0  0  0  0  0  0  0  0  0  0  0  0
  -11.8103   15.8022   73.6966 C   0  0  0  0  0  0  0  0  0  0  0  0
  -12.6594   15.5153   72.6113 C   0  0  0  0  0  0  0  0  0  0  0  0
  -12.1896   15.6561   71.2886 C   0  0  0  0  0  0  0  0  0  0  0  0
  -12.2484   15.6088   75.0145 O   0  0  0  0  0  0  0  0  0  0  0  0
   -6.3059   19.3591   66.9155 C   0  0  0  0  0  0  0  0  0  0  0  0
   -6.9559   20.4797   66.4335 C   0  0  0  0  0  0  0  0  0  0  0  0
   -8.3617   20.5503   66.3752 C   0  0  0  0  0  0  0  0  0  0  0  0
   -9.1828   19.4927   66.8326 C   0  0  0  0  0  0  0  0  0  0  0  0
   -6.0983   21.4742   65.9930 O   0  0  0  0  0  0  0  0  0  0  0  0
  -12.3400   16.7910   75.7224 C   0  0  0  0  0  0  0  0  0  0  0  0
  -14.0734   14.8986   72.8105 C   0  0  0  0  0  0  0  0  0  0  0  0
   -4.9517   19.3077   67.1804 O   0  0  0  0  0  0  0  0  0  0  0  0
   -4.3645   19.4795   68.3526 C   0  0  0  0  0  0  0  0  0  0  0  0
  1  2  2  0
  1  6  1  0
  1 11  1  0
  2  3  1  0
  3  4  1  0
  3  7  1  0
  4  9  2  0
  4  5  1  0
  5  6  1  0
  5  8  1  0
  6 10  2  0
 11 12  3  0
 16 19  1  0
 21 24  1  0
 19 25  1  0
 17 26  1  0
 20 27  1  0
 27 28  1  0
  8 13  2  0
 13 20  1  0
 20 21  2  0
 21 22  1  0
 22 23  2  0
 23  8  1  0
  7 18  2  0
 18 17  1  0
 17 16  2  0
 16 15  1  0
 15 14  2  0
 14  7  1  0
M  END

$$$$
No_83-gen_results_new/Mpro_initial_molecule_p3/2024-06-19-20-31-25/
     RDKit          3D

 27 29  0  0  0  0  0  0  0  0999 V2000
  -10.3383   15.1532   67.5971 C   0  0  0  0  0  0  0  0  0  0  0  0
  -10.7220   15.1619   68.8301 N   0  0  0  0  0  0  0  0  0  0  0  0
  -10.4044   16.2024   69.6852 N   0  0  0  0  0  0  0  0  0  0  0  0
   -9.7271   17.3221   69.2607 C   0  0  0  0  0  0  0  0  0  0  0  0
   -9.3095   17.3212   67.9557 N   0  0  0  0  0  0  0  0  0  0  0  0
   -9.5450   16.2958   67.0814 C   0  0  0  0  0  0  0  0  0  0  0  0
  -10.8644   16.0907   71.0374 C   0  0  0  0  0  0  0  0  0  0  0  0
   -8.5330   18.4792   67.4604 C   0  0  0  0  0  0  0  0  0  0  0  0
   -9.5433   18.2987   69.9938 O   0  0  0  0  0  0  0  0  0  0  0  0
   -9.1481   16.2876   65.9124 O   0  0  0  0  0  0  0  0  0  0  0  0
  -10.7304   14.0247   66.8209 C   0  0  0  0  0  0  0  0  0  0  0  0
  -11.1003   13.0895   66.2465 N   0  0  0  0  0  0  0  0  0  0  0  0
   -7.0275   18.2876   67.7219 C   0  0  0  0  0  0  0  0  0  0  0  0
  -10.0126   16.3511   72.1395 C   0  0  0  0  0  0  0  0  0  0  0  0
  -10.4883   16.2212   73.4591 C   0  0  0  0  0  0  0  0  0  0  0  0
  -11.8103   15.8022   73.6966 C   0  0  0  0  0  0  0  0  0  0  0  0
  -12.6594   15.5153   72.6113 C   0  0  0  0  0  0  0  0  0  0  0  0
  -12.1896   15.6561   71.2886 C   0  0  0  0  0  0  0  0  0  0  0  0
  -12.3486   15.5799   75.3255 Cl  0  0  0  0  0  0  0  0  0  0  0  0
   -6.5558   17.2018   67.9045 O   0  0  0  0  0  0  0  0  0  0  0  0
   -6.4130   19.3147   68.0692 N   0  0  0  0  0  0  0  0  0  0  0  0
   -4.9879   19.3264   68.2155 C   0  0  0  0  0  0  0  0  0  0  0  0
   -4.3589   20.6802   68.2943 C   0  0  0  0  0  0  0  0  0  0  0  0
   -3.6895   21.0627   67.2079 C   0  0  0  0  0  0  0  0  0  0  0  0
   -2.8896   19.9913   66.5556 C   0  0  0  0  0  0  0  0  0  0  0  0
   -3.0102   18.8816   66.6467 C   0  0  0  0  0  0  0  0  0  0  0  0
   -4.3937   18.3954   67.3358 C   0  0  0  0  0  0  0  0  0  0  0  0
  1  2  2  0
  1  6  1  0
  1 11  1  0
  2  3  1  0
  3  4  1  0
  3  7  1  0
  4  9  2  0
  4  5  1  0
  5  6  1  0
  5  8  1  0
  6 10  2  0
  8 13  1  0
 11 12  3  0
 16 19  1  0
 13 20  2  0
 13 21  1  0
 21 22  1  0
 22 23  2  0
 23 24  1  0
 24 25  2  0
 25 26  1  0
 26 27  2  0
 27 22  1  0
  7 18  2  0
 18 17  1  0
 17 16  2  0
 16 15  1  0
 15 14  2  0
 14  7  1  0
M  END

$$$$
No_84-gen_results_new/Mpro_initial_molecule_p3/2024-06-19-20-31-25/
     RDKit          3D

 28 30  0  0  0  0  0  0  0  0999 V2000
  -10.3383   15.1532   67.5971 C   0  0  0  0  0  0  0  0  0  0  0  0
  -10.7220   15.1619   68.8301 N   0  0  0  0  0  0  0  0  0  0  0  0
  -10.4044   16.2024   69.6852 N   0  0  0  0  0  0  0  0  0  0  0  0
   -9.7271   17.3221   69.2607 C   0  0  0  0  0  0  0  0  0  0  0  0
   -9.3095   17.3212   67.9557 N   0  0  0  0  0  0  0  0  0  0  0  0
   -9.5450   16.2958   67.0814 C   0  0  0  0  0  0  0  0  0  0  0  0
  -10.8644   16.0907   71.0374 C   0  0  0  0  0  0  0  0  0  0  0  0
   -8.5330   18.4792   67.4604 C   0  0  0  0  0  0  0  0  0  0  0  0
   -9.5433   18.2987   69.9938 O   0  0  0  0  0  0  0  0  0  0  0  0
   -9.1481   16.2876   65.9124 O   0  0  0  0  0  0  0  0  0  0  0  0
  -10.7304   14.0247   66.8209 C   0  0  0  0  0  0  0  0  0  0  0  0
  -11.1003   13.0895   66.2465 N   0  0  0  0  0  0  0  0  0  0  0  0
   -7.0275   18.2876   67.7219 C   0  0  0  0  0  0  0  0  0  0  0  0
  -10.0126   16.3511   72.1395 C   0  0  0  0  0  0  0  0  0  0  0  0
  -10.4883   16.2212   73.4591 C   0  0  0  0  0  0  0  0  0  0  0  0
  -11.8103   15.8022   73.6966 C   0  0  0  0  0  0  0  0  0  0  0  0
  -12.6594   15.5153   72.6113 C   0  0  0  0  0  0  0  0  0  0  0  0
  -12.1896   15.6561   71.2886 C   0  0  0  0  0  0  0  0  0  0  0  0
  -12.2768   15.6000   75.1088 C   0  0  0  0  0  0  0  0  0  0  0  0
   -6.4522   19.3092   67.8826 C   0  0  0  0  0  0  0  0  0  0  0  0
  -12.3537   14.5923   75.5994 O   0  0  0  0  0  0  0  0  0  0  0  0
  -12.8079   16.7351   75.7027 N   0  0  0  0  0  0  0  0  0  0  0  0
   -6.1516   19.5318   69.0461 C   0  0  0  0  0  0  0  0  0  0  0  0
   -4.9926   20.3638   69.5151 C   0  0  0  0  0  0  0  0  0  0  0  0
   -4.1532   20.8896   68.4944 C   0  0  0  0  0  0  0  0  0  0  0  0
   -4.2467   20.4393   67.1774 C   0  0  0  0  0  0  0  0  0  0  0  0
   -5.3940   19.6496   66.8398 C   0  0  0  0  0  0  0  0  0  0  0  0
   -3.3530   21.0798   65.9107 Cl  0  0  0  0  0  0  0  0  0  0  0  0
  1  2  2  0
  1  6  1  0
  1 11  1  0
  2  3  1  0
  3  4  1  0
  3  7  1  0
  4  9  2  0
  4  5  1  0
  5  6  1  0
  5  8  1  0
  6 10  2  0
  8 13  1  0
 11 12  3  0
 16 19  1  0
 13 20  1  0
 19 21  2  0
 19 22  1  0
 26 28  1  0
 20 23  2  0
 23 24  1  0
 24 25  2  0
 25 26  1  0
 26 27  2  0
 27 20  1  0
  7 18  2  0
 18 17  1  0
 17 16  2  0
 16 15  1  0
 15 14  2  0
 14  7  1  0
M  END

$$$$
No_85-gen_results_new/Mpro_initial_molecule_p3/2024-06-19-20-31-25/
     RDKit          3D

 28 30  0  0  0  0  0  0  0  0999 V2000
  -10.3383   15.1532   67.5971 C   0  0  0  0  0  0  0  0  0  0  0  0
  -10.7220   15.1619   68.8301 N   0  0  0  0  0  0  0  0  0  0  0  0
  -10.4044   16.2024   69.6852 N   0  0  0  0  0  0  0  0  0  0  0  0
   -9.7271   17.3221   69.2607 C   0  0  0  0  0  0  0  0  0  0  0  0
   -9.3095   17.3212   67.9557 N   0  0  0  0  0  0  0  0  0  0  0  0
   -9.5450   16.2958   67.0814 C   0  0  0  0  0  0  0  0  0  0  0  0
  -10.8644   16.0907   71.0374 C   0  0  0  0  0  0  0  0  0  0  0  0
   -8.5330   18.4792   67.4604 C   0  0  0  0  0  0  0  0  0  0  0  0
   -9.5433   18.2987   69.9938 O   0  0  0  0  0  0  0  0  0  0  0  0
   -9.1481   16.2876   65.9124 O   0  0  0  0  0  0  0  0  0  0  0  0
  -10.7304   14.0247   66.8209 C   0  0  0  0  0  0  0  0  0  0  0  0
  -11.1003   13.0895   66.2465 N   0  0  0  0  0  0  0  0  0  0  0  0
   -7.0275   18.2876   67.7219 C   0  0  0  0  0  0  0  0  0  0  0  0
  -10.0126   16.3511   72.1395 C   0  0  0  0  0  0  0  0  0  0  0  0
  -10.4883   16.2212   73.4591 C   0  0  0  0  0  0  0  0  0  0  0  0
  -11.8103   15.8022   73.6966 C   0  0  0  0  0  0  0  0  0  0  0  0
  -12.6594   15.5153   72.6113 C   0  0  0  0  0  0  0  0  0  0  0  0
  -12.1896   15.6561   71.2886 C   0  0  0  0  0  0  0  0  0  0  0  0
  -12.2768   15.6000   75.1088 C   0  0  0  0  0  0  0  0  0  0  0  0
   -6.5341   17.3729   68.3685 C   0  0  0  0  0  0  0  0  0  0  0  0
   -5.1308   17.1882   68.5568 C   0  0  0  0  0  0  0  0  0  0  0  0
   -6.3132   19.4047   67.2946 C   0  0  0  0  0  0  0  0  0  0  0  0
   -4.9040   19.2890   67.4766 C   0  0  0  0  0  0  0  0  0  0  0  0
   -4.3512   18.1958   68.1017 C   0  0  0  0  0  0  0  0  0  0  0  0
  -12.3515   14.5927   75.5999 O   0  0  0  0  0  0  0  0  0  0  0  0
  -12.4557   16.7020   75.7577 O   0  0  0  0  0  0  0  0  0  0  0  0
   -4.0545   20.4400   67.0446 C   0  0  0  0  0  0  0  0  0  0  0  0
   -3.8758   20.6543   65.8047 N   0  0  0  0  0  0  0  0  0  0  0  0
  1  2  2  0
  1  6  1  0
  1 11  1  0
  2  3  1  0
  3  4  1  0
  3  7  1  0
  4  9  2  0
  4  5  1  0
  5  6  1  0
  5  8  1  0
  6 10  2  0
  8 13  1  0
 11 12  3  0
 16 19  1  0
 19 25  2  0
 19 26  1  0
 23 27  1  0
 27 28  1  0
 13 20  2  0
 20 21  1  0
 21 24  2  0
 24 23  1  0
 23 22  2  0
 22 13  1  0
  7 18  2  0
 18 17  1  0
 17 16  2  0
 16 15  1  0
 15 14  2  0
 14  7  1  0
M  END

$$$$
No_86-gen_results_new/Mpro_initial_molecule_p3/2024-06-19-20-31-25/
     RDKit          3D

 28 30  0  0  0  0  0  0  0  0999 V2000
  -10.3383   15.1532   67.5971 C   0  0  0  0  0  0  0  0  0  0  0  0
  -10.7220   15.1619   68.8301 N   0  0  0  0  0  0  0  0  0  0  0  0
  -10.4044   16.2024   69.6852 N   0  0  0  0  0  0  0  0  0  0  0  0
   -9.7271   17.3221   69.2607 C   0  0  0  0  0  0  0  0  0  0  0  0
   -9.3095   17.3212   67.9557 N   0  0  0  0  0  0  0  0  0  0  0  0
   -9.5450   16.2958   67.0814 C   0  0  0  0  0  0  0  0  0  0  0  0
  -10.8644   16.0907   71.0374 C   0  0  0  0  0  0  0  0  0  0  0  0
   -8.5330   18.4792   67.4604 C   0  0  0  0  0  0  0  0  0  0  0  0
   -9.5433   18.2987   69.9938 O   0  0  0  0  0  0  0  0  0  0  0  0
   -9.1481   16.2876   65.9124 O   0  0  0  0  0  0  0  0  0  0  0  0
  -10.7304   14.0247   66.8209 C   0  0  0  0  0  0  0  0  0  0  0  0
  -11.1003   13.0895   66.2465 N   0  0  0  0  0  0  0  0  0  0  0  0
   -7.0275   18.2876   67.7219 C   0  0  0  0  0  0  0  0  0  0  0  0
  -10.0126   16.3511   72.1395 C   0  0  0  0  0  0  0  0  0  0  0  0
  -10.4883   16.2212   73.4591 C   0  0  0  0  0  0  0  0  0  0  0  0
  -11.8103   15.8022   73.6966 C   0  0  0  0  0  0  0  0  0  0  0  0
  -12.6594   15.5153   72.6113 C   0  0  0  0  0  0  0  0  0  0  0  0
  -12.1896   15.6561   71.2886 C   0  0  0  0  0  0  0  0  0  0  0  0
  -12.2768   15.6000   75.1088 C   0  0  0  0  0  0  0  0  0  0  0  0
   -6.5341   17.3729   68.3685 C   0  0  0  0  0  0  0  0  0  0  0  0
   -5.1308   17.1882   68.5568 C   0  0  0  0  0  0  0  0  0  0  0  0
   -6.3132   19.4047   67.2946 C   0  0  0  0  0  0  0  0  0  0  0  0
   -4.9040   19.2890   67.4766 C   0  0  0  0  0  0  0  0  0  0  0  0
   -4.3512   18.1958   68.1017 C   0  0  0  0  0  0  0  0  0  0  0  0
  -12.9861   16.5588   75.4323 F   0  0  0  0  0  0  0  0  0  0  0  0
  -11.2708   15.5037   75.8797 F   0  0  0  0  0  0  0  0  0  0  0  0
  -13.0947   14.4887   74.9607 F   0  0  0  0  0  0  0  0  0  0  0  0
   -4.1432   20.3753   67.0813 O   0  0  0  0  0  0  0  0  0  0  0  0
  1  2  2  0
  1  6  1  0
  1 11  1  0
  2  3  1  0
  3  4  1  0
  3  7  1  0
  4  9  2  0
  4  5  1  0
  5  6  1  0
  5  8  1  0
  6 10  2  0
  8 13  1  0
 11 12  3  0
 16 19  1  0
 19 25  1  0
 19 26  1  0
 19 27  1  0
 23 28  1  0
 13 20  2  0
 20 21  1  0
 21 24  2  0
 24 23  1  0
 23 22  2  0
 22 13  1  0
  7 18  2  0
 18 17  1  0
 17 16  2  0
 16 15  1  0
 15 14  2  0
 14  7  1  0
M  END

$$$$
No_87-gen_results_new/Mpro_initial_molecule_p3/2024-06-19-20-31-25/
     RDKit          3D

 28 30  0  0  0  0  0  0  0  0999 V2000
  -10.3383   15.1532   67.5971 C   0  0  0  0  0  0  0  0  0  0  0  0
  -10.7220   15.1619   68.8301 N   0  0  0  0  0  0  0  0  0  0  0  0
  -10.4044   16.2024   69.6852 N   0  0  0  0  0  0  0  0  0  0  0  0
   -9.7271   17.3221   69.2607 C   0  0  0  0  0  0  0  0  0  0  0  0
   -9.3095   17.3212   67.9557 N   0  0  0  0  0  0  0  0  0  0  0  0
   -9.5450   16.2958   67.0814 C   0  0  0  0  0  0  0  0  0  0  0  0
  -10.8644   16.0907   71.0374 C   0  0  0  0  0  0  0  0  0  0  0  0
   -8.5330   18.4792   67.4604 C   0  0  0  0  0  0  0  0  0  0  0  0
   -9.5433   18.2987   69.9938 O   0  0  0  0  0  0  0  0  0  0  0  0
   -9.1481   16.2876   65.9124 O   0  0  0  0  0  0  0  0  0  0  0  0
  -10.7304   14.0247   66.8209 C   0  0  0  0  0  0  0  0  0  0  0  0
  -11.1003   13.0895   66.2465 N   0  0  0  0  0  0  0  0  0  0  0  0
   -7.0275   18.2876   67.7219 C   0  0  0  0  0  0  0  0  0  0  0  0
  -10.0126   16.3511   72.1395 C   0  0  0  0  0  0  0  0  0  0  0  0
  -10.4883   16.2212   73.4591 C   0  0  0  0  0  0  0  0  0  0  0  0
  -11.8103   15.8022   73.6966 C   0  0  0  0  0  0  0  0  0  0  0  0
  -12.6594   15.5153   72.6113 C   0  0  0  0  0  0  0  0  0  0  0  0
  -12.1896   15.6561   71.2886 C   0  0  0  0  0  0  0  0  0  0  0  0
  -12.2484   15.6088   75.0145 O   0  0  0  0  0  0  0  0  0  0  0  0
   -6.4522   19.3083   67.8828 C   0  0  0  0  0  0  0  0  0  0  0  0
   -6.2560   20.3852   67.0148 C   0  0  0  0  0  0  0  0  0  0  0  0
   -6.3494   20.0753   65.8006 C   0  0  0  0  0  0  0  0  0  0  0  0
   -5.5685   20.6292   64.6883 C   0  0  0  0  0  0  0  0  0  0  0  0
   -5.0076   21.8474   64.9198 C   0  0  0  0  0  0  0  0  0  0  0  0
   -4.2168   22.4272   63.8844 C   0  0  0  0  0  0  0  0  0  0  0  0
   -4.1740   21.9532   62.6702 C   0  0  0  0  0  0  0  0  0  0  0  0
   -4.8838   20.7542   62.3701 C   0  0  0  0  0  0  0  0  0  0  0  0
   -5.5697   20.0930   63.3582 C   0  0  0  0  0  0  0  0  0  0  0  0
  1  2  2  0
  1  6  1  0
  1 11  1  0
  2  3  1  0
  3  4  1  0
  3  7  1  0
  4  9  2  0
  4  5  1  0
  5  6  1  0
  5  8  1  0
  6 10  2  0
  8 13  1  0
 11 12  3  0
 16 19  1  0
 13 20  1  0
 20 21  1  0
 21 22  2  3
 22 23  1  0
 23 24  2  0
 24 25  1  0
 25 26  2  0
 26 27  1  0
 27 28  2  0
 28 23  1  0
  7 18  2  0
 18 17  1  0
 17 16  2  0
 16 15  1  0
 15 14  2  0
 14  7  1  0
M  END

$$$$
No_88-gen_results_new/Mpro_initial_molecule_p3/2024-06-19-20-31-25/
     RDKit          3D

 28 30  0  0  0  0  0  0  0  0999 V2000
  -10.3383   15.1532   67.5971 C   0  0  0  0  0  0  0  0  0  0  0  0
  -10.7220   15.1619   68.8301 N   0  0  0  0  0  0  0  0  0  0  0  0
  -10.4044   16.2024   69.6852 N   0  0  0  0  0  0  0  0  0  0  0  0
   -9.7271   17.3221   69.2607 C   0  0  0  0  0  0  0  0  0  0  0  0
   -9.3095   17.3212   67.9557 N   0  0  0  0  0  0  0  0  0  0  0  0
   -9.5450   16.2958   67.0814 C   0  0  0  0  0  0  0  0  0  0  0  0
  -10.8644   16.0907   71.0374 C   0  0  0  0  0  0  0  0  0  0  0  0
   -8.5330   18.4792   67.4604 C   0  0  0  0  0  0  0  0  0  0  0  0
   -9.5433   18.2987   69.9938 O   0  0  0  0  0  0  0  0  0  0  0  0
   -9.1481   16.2876   65.9124 O   0  0  0  0  0  0  0  0  0  0  0  0
  -10.7304   14.0247   66.8209 C   0  0  0  0  0  0  0  0  0  0  0  0
  -11.1003   13.0895   66.2465 N   0  0  0  0  0  0  0  0  0  0  0  0
   -7.0275   18.2876   67.7219 C   0  0  0  0  0  0  0  0  0  0  0  0
  -10.0126   16.3511   72.1395 C   0  0  0  0  0  0  0  0  0  0  0  0
  -10.4883   16.2212   73.4591 C   0  0  0  0  0  0  0  0  0  0  0  0
  -11.8103   15.8022   73.6966 C   0  0  0  0  0  0  0  0  0  0  0  0
  -12.6594   15.5153   72.6113 C   0  0  0  0  0  0  0  0  0  0  0  0
  -12.1896   15.6561   71.2886 C   0  0  0  0  0  0  0  0  0  0  0  0
  -12.2768   15.6000   75.1088 C   0  0  0  0  0  0  0  0  0  0  0  0
   -6.5341   17.3729   68.3685 C   0  0  0  0  0  0  0  0  0  0  0  0
   -5.2032   17.6239   68.8100 C   0  0  0  0  0  0  0  0  0  0  0  0
   -4.6598   18.5979   68.2656 C   0  0  0  0  0  0  0  0  0  0  0  0
   -5.0634   19.5096   67.4534 C   0  0  0  0  0  0  0  0  0  0  0  0
   -6.4279   19.4292   67.1465 C   0  0  0  0  0  0  0  0  0  0  0  0
  -11.9753   16.5265   75.8854 N   0  0  0  0  0  0  0  0  0  0  0  0
   -4.2077   20.8465   66.8399 Cl  0  0  0  0  0  0  0  0  0  0  0  0
  -12.6485   14.5275   75.4122 O   0  0  0  0  0  0  0  0  0  0  0  0
   -3.1260   18.6720   68.5465 O   0  0  0  0  0  0  0  0  0  0  0  0
  1  2  2  0
  1  6  1  0
  1 11  1  0
  2  3  1  0
  3  4  1  0
  3  7  1  0
  4  9  2  0
  4  5  1  0
  5  6  1  0
  5  8  1  0
  6 10  2  0
  8 13  1  0
 11 12  3  0
 16 19  1  0
 19 25  1  0
 23 26  1  0
 19 27  2  0
 22 28  1  0
 13 20  2  0
 20 21  1  0
 21 22  2  0
 22 23  1  0
 23 24  2  0
 24 13  1  0
  7 18  2  0
 18 17  1  0
 17 16  2  0
 16 15  1  0
 15 14  2  0
 14  7  1  0
M  END

$$$$
No_89-gen_results_new/Mpro_initial_molecule_p3/2024-06-19-20-31-25/
     RDKit          3D

 28 30  0  0  0  0  0  0  0  0999 V2000
  -10.3383   15.1532   67.5971 C   0  0  0  0  0  0  0  0  0  0  0  0
  -10.7220   15.1619   68.8301 N   0  0  0  0  0  0  0  0  0  0  0  0
  -10.4044   16.2024   69.6852 N   0  0  0  0  0  0  0  0  0  0  0  0
   -9.7271   17.3221   69.2607 C   0  0  0  0  0  0  0  0  0  0  0  0
   -9.3095   17.3212   67.9557 N   0  0  0  0  0  0  0  0  0  0  0  0
   -9.5450   16.2958   67.0814 C   0  0  0  0  0  0  0  0  0  0  0  0
  -10.8644   16.0907   71.0374 C   0  0  0  0  0  0  0  0  0  0  0  0
   -8.5330   18.4792   67.4604 C   0  0  0  0  0  0  0  0  0  0  0  0
   -9.5433   18.2987   69.9938 O   0  0  0  0  0  0  0  0  0  0  0  0
   -9.1481   16.2876   65.9124 O   0  0  0  0  0  0  0  0  0  0  0  0
  -10.7304   14.0247   66.8209 C   0  0  0  0  0  0  0  0  0  0  0  0
  -11.1003   13.0895   66.2465 N   0  0  0  0  0  0  0  0  0  0  0  0
   -7.0275   18.2876   67.7219 C   0  0  0  0  0  0  0  0  0  0  0  0
  -10.0126   16.3511   72.1395 C   0  0  0  0  0  0  0  0  0  0  0  0
  -10.4883   16.2212   73.4591 C   0  0  0  0  0  0  0  0  0  0  0  0
  -11.8103   15.8022   73.6966 C   0  0  0  0  0  0  0  0  0  0  0  0
  -12.6594   15.5153   72.6113 C   0  0  0  0  0  0  0  0  0  0  0  0
  -12.1896   15.6561   71.2886 C   0  0  0  0  0  0  0  0  0  0  0  0
  -12.3486   15.5799   75.3255 Cl  0  0  0  0  0  0  0  0  0  0  0  0
   -6.4523   19.3079   67.8835 C   0  0  0  0  0  0  0  0  0  0  0  0
   -6.2032   19.5449   69.0280 C   0  0  0  0  0  0  0  0  0  0  0  0
   -5.7757   18.3738   69.8014 C   0  0  0  0  0  0  0  0  0  0  0  0
   -5.4995   17.3865   69.5534 C   0  0  0  0  0  0  0  0  0  0  0  0
   -5.4020   16.1394   70.4506 N   0  0  0  0  0  0  0  0  0  0  0  0
   -5.4454   14.9510   69.6708 C   0  0  0  0  0  0  0  0  0  0  0  0
   -6.7240   16.9884   68.4288 C   0  0  0  0  0  0  0  0  0  0  0  0
   -5.1820   13.7859   70.5269 C   0  0  0  0  0  0  0  0  0  0  0  0
   -5.0758   13.8681   71.7664 C   0  0  0  0  0  0  0  0  0  0  0  0
  1  2  2  0
  1  6  1  0
  1 11  1  0
  2  3  1  0
  3  4  1  0
  3  7  1  0
  4  9  2  0
  4  5  1  0
  5  6  1  0
  5  8  1  0
  6 10  2  0
  8 13  1  0
 11 12  3  0
 16 19  1  0
 23 24  1  0
 24 25  1  0
 25 27  1  0
 27 28  2  0
 13 20  2  0
 20 21  1  0
 21 22  2  0
 22 23  1  0
 23 26  2  0
 26 13  1  0
  7 18  2  0
 18 17  1  0
 17 16  2  0
 16 15  1  0
 15 14  2  0
 14  7  1  0
M  END

$$$$
No_90-gen_results_new/Mpro_initial_molecule_p3/2024-06-19-20-31-25/
     RDKit          3D

 28 30  0  0  0  0  0  0  0  0999 V2000
  -10.3383   15.1532   67.5971 C   0  0  0  0  0  0  0  0  0  0  0  0
  -10.7220   15.1619   68.8301 N   0  0  0  0  0  0  0  0  0  0  0  0
  -10.4044   16.2024   69.6852 N   0  0  0  0  0  0  0  0  0  0  0  0
   -9.7271   17.3221   69.2607 C   0  0  0  0  0  0  0  0  0  0  0  0
   -9.3095   17.3212   67.9557 N   0  0  0  0  0  0  0  0  0  0  0  0
   -9.5450   16.2958   67.0814 C   0  0  0  0  0  0  0  0  0  0  0  0
  -10.8644   16.0907   71.0374 C   0  0  0  0  0  0  0  0  0  0  0  0
   -8.5330   18.4792   67.4604 C   0  0  0  0  0  0  0  0  0  0  0  0
   -9.5433   18.2987   69.9938 O   0  0  0  0  0  0  0  0  0  0  0  0
   -9.1481   16.2876   65.9124 O   0  0  0  0  0  0  0  0  0  0  0  0
  -10.7304   14.0247   66.8209 C   0  0  0  0  0  0  0  0  0  0  0  0
  -11.1003   13.0895   66.2465 N   0  0  0  0  0  0  0  0  0  0  0  0
   -7.0275   18.2876   67.7219 C   0  0  0  0  0  0  0  0  0  0  0  0
  -10.0126   16.3511   72.1395 C   0  0  0  0  0  0  0  0  0  0  0  0
  -10.4883   16.2212   73.4591 C   0  0  0  0  0  0  0  0  0  0  0  0
  -11.8103   15.8022   73.6966 C   0  0  0  0  0  0  0  0  0  0  0  0
  -12.6594   15.5153   72.6113 C   0  0  0  0  0  0  0  0  0  0  0  0
  -12.1896   15.6561   71.2886 C   0  0  0  0  0  0  0  0  0  0  0  0
  -12.3486   15.5799   75.3255 Cl  0  0  0  0  0  0  0  0  0  0  0  0
   -6.3058   19.3592   66.9157 C   0  0  0  0  0  0  0  0  0  0  0  0
   -4.9894   19.4433   66.9687 C   0  0  0  0  0  0  0  0  0  0  0  0
   -4.2710   18.3392   67.6547 C   0  0  0  0  0  0  0  0  0  0  0  0
   -5.0430   17.2550   68.3049 C   0  0  0  0  0  0  0  0  0  0  0  0
   -6.4241   17.2326   68.1847 C   0  0  0  0  0  0  0  0  0  0  0  0
   -4.2029   20.4288   66.3810 C   0  0  0  0  0  0  0  0  0  0  0  0
   -4.1009   20.6157   65.0951 C   0  0  0  0  0  0  0  0  0  0  0  0
   -3.4057   21.7079   64.5462 C   0  0  0  0  0  0  0  0  0  0  0  0
   -3.2729   22.0142   63.2255 C   0  0  0  0  0  0  0  0  0  0  0  0
  1  2  2  0
  1  6  1  0
  1 11  1  0
  2  3  1  0
  3  4  1  0
  3  7  1  0
  4  9  2  0
  4  5  1  0
  5  6  1  0
  5  8  1  0
  6 10  2  0
  8 13  1  0
 11 12  3  0
 16 19  1  0
 21 25  1  0
 25 26  2  3
 26 27  1  0
 27 28  1  0
 13 20  2  0
 20 21  1  0
 21 22  2  0
 22 23  1  0
 23 24  2  0
 24 13  1  0
  7 18  2  0
 18 17  1  0
 17 16  2  0
 16 15  1  0
 15 14  2  0
 14  7  1  0
M  END

$$$$
No_91-gen_results_new/Mpro_initial_molecule_p3/2024-06-19-20-31-25/
     RDKit          3D

 28 30  0  0  0  0  0  0  0  0999 V2000
  -10.3383   15.1532   67.5971 C   0  0  0  0  0  0  0  0  0  0  0  0
  -10.7220   15.1619   68.8301 N   0  0  0  0  0  0  0  0  0  0  0  0
  -10.4044   16.2024   69.6852 N   0  0  0  0  0  0  0  0  0  0  0  0
   -9.7271   17.3221   69.2607 C   0  0  0  0  0  0  0  0  0  0  0  0
   -9.3095   17.3212   67.9557 N   0  0  0  0  0  0  0  0  0  0  0  0
   -9.5450   16.2958   67.0814 C   0  0  0  0  0  0  0  0  0  0  0  0
  -10.8644   16.0907   71.0374 C   0  0  0  0  0  0  0  0  0  0  0  0
   -8.5330   18.4792   67.4604 C   0  0  0  0  0  0  0  0  0  0  0  0
   -9.5433   18.2987   69.9938 O   0  0  0  0  0  0  0  0  0  0  0  0
   -9.1481   16.2876   65.9124 O   0  0  0  0  0  0  0  0  0  0  0  0
  -10.7304   14.0247   66.8209 C   0  0  0  0  0  0  0  0  0  0  0  0
  -11.1003   13.0895   66.2465 N   0  0  0  0  0  0  0  0  0  0  0  0
   -7.0275   18.2876   67.7219 C   0  0  0  0  0  0  0  0  0  0  0  0
  -10.0126   16.3511   72.1395 C   0  0  0  0  0  0  0  0  0  0  0  0
  -10.4883   16.2212   73.4591 C   0  0  0  0  0  0  0  0  0  0  0  0
  -11.8103   15.8022   73.6966 C   0  0  0  0  0  0  0  0  0  0  0  0
  -12.6594   15.5153   72.6113 C   0  0  0  0  0  0  0  0  0  0  0  0
  -12.1896   15.6561   71.2886 C   0  0  0  0  0  0  0  0  0  0  0  0
  -12.3486   15.5799   75.3255 Cl  0  0  0  0  0  0  0  0  0  0  0  0
   -6.5344   17.3734   68.3696 C   0  0  0  0  0  0  0  0  0  0  0  0
   -5.1249   17.1828   68.5820 C   0  0  0  0  0  0  0  0  0  0  0  0
   -4.2977   17.9477   67.7740 C   0  0  0  0  0  0  0  0  0  0  0  0
   -4.8005   18.8999   66.9631 C   0  0  0  0  0  0  0  0  0  0  0  0
   -6.2036   19.0657   66.8222 C   0  0  0  0  0  0  0  0  0  0  0  0
  -14.0277   15.0076   72.7863 O   0  0  0  0  0  0  0  0  0  0  0  0
   -6.7526   20.0010   65.9534 O   0  0  0  0  0  0  0  0  0  0  0  0
   -5.8945   20.5615   64.9988 C   0  0  0  0  0  0  0  0  0  0  0  0
   -4.7694   21.0672   65.1901 C   0  0  0  0  0  0  0  0  0  0  0  0
  1  2  2  0
  1  6  1  0
  1 11  1  0
  2  3  1  0
  3  4  1  0
  3  7  1  0
  4  9  2  0
  4  5  1  0
  5  6  1  0
  5  8  1  0
  6 10  2  0
  8 13  1  0
 11 12  3  0
 16 19  1  0
 17 25  1  0
 24 26  1  0
 26 27  1  0
 27 28  1  0
 13 20  2  0
 20 21  1  0
 21 22  2  0
 22 23  1  0
 23 24  2  0
 24 13  1  0
  7 18  2  0
 18 17  1  0
 17 16  2  0
 16 15  1  0
 15 14  2  0
 14  7  1  0
M  END

$$$$
No_92-gen_results_new/Mpro_initial_molecule_p3/2024-06-19-20-31-25/
     RDKit          3D

 28 30  0  0  0  0  0  0  0  0999 V2000
  -10.3383   15.1532   67.5971 C   0  0  0  0  0  0  0  0  0  0  0  0
  -10.7220   15.1619   68.8301 N   0  0  0  0  0  0  0  0  0  0  0  0
  -10.4044   16.2024   69.6852 N   0  0  0  0  0  0  0  0  0  0  0  0
   -9.7271   17.3221   69.2607 C   0  0  0  0  0  0  0  0  0  0  0  0
   -9.3095   17.3212   67.9557 N   0  0  0  0  0  0  0  0  0  0  0  0
   -9.5450   16.2958   67.0814 C   0  0  0  0  0  0  0  0  0  0  0  0
  -10.8644   16.0907   71.0374 C   0  0  0  0  0  0  0  0  0  0  0  0
   -8.5330   18.4792   67.4604 C   0  0  0  0  0  0  0  0  0  0  0  0
   -9.5433   18.2987   69.9938 O   0  0  0  0  0  0  0  0  0  0  0  0
   -9.1481   16.2876   65.9124 O   0  0  0  0  0  0  0  0  0  0  0  0
  -10.7304   14.0247   66.8209 C   0  0  0  0  0  0  0  0  0  0  0  0
  -11.1003   13.0895   66.2465 N   0  0  0  0  0  0  0  0  0  0  0  0
   -7.0275   18.2876   67.7219 C   0  0  0  0  0  0  0  0  0  0  0  0
  -10.0126   16.3511   72.1395 C   0  0  0  0  0  0  0  0  0  0  0  0
  -10.4883   16.2212   73.4591 C   0  0  0  0  0  0  0  0  0  0  0  0
  -11.8103   15.8022   73.6966 C   0  0  0  0  0  0  0  0  0  0  0  0
  -12.6594   15.5153   72.6113 C   0  0  0  0  0  0  0  0  0  0  0  0
  -12.1896   15.6561   71.2886 C   0  0  0  0  0  0  0  0  0  0  0  0
  -12.2768   15.6000   75.1088 C   0  0  0  0  0  0  0  0  0  0  0  0
   -6.5341   17.3729   68.3685 C   0  0  0  0  0  0  0  0  0  0  0  0
   -5.1249   17.1827   68.5818 C   0  0  0  0  0  0  0  0  0  0  0  0
   -4.4393   18.0516   67.8378 C   0  0  0  0  0  0  0  0  0  0  0  0
   -4.8689   19.0478   67.0695 C   0  0  0  0  0  0  0  0  0  0  0  0
   -6.2627   19.1643   66.9261 C   0  0  0  0  0  0  0  0  0  0  0  0
  -12.3528   14.5927   75.5996 O   0  0  0  0  0  0  0  0  0  0  0  0
  -12.2003   16.7297   75.8911 N   0  0  0  0  0  0  0  0  0  0  0  0
  -14.0762   14.9543   72.8441 C   0  0  0  0  0  0  0  0  0  0  0  0
   -3.9998   19.9994   66.3275 C   0  0  0  0  0  0  0  0  0  0  0  0
  1  2  2  0
  1  6  1  0
  1 11  1  0
  2  3  1  0
  3  4  1  0
  3  7  1  0
  4  9  2  0
  4  5  1  0
  5  6  1  0
  5  8  1  0
  6 10  2  0
  8 13  1  0
 11 12  3  0
 16 19  1  0
 19 25  2  0
 19 26  1  0
 17 27  1  0
 23 28  1  0
 13 20  2  0
 20 21  1  0
 21 22  2  0
 22 23  1  0
 23 24  2  0
 24 13  1  0
  7 18  2  0
 18 17  1  0
 17 16  2  0
 16 15  1  0
 15 14  2  0
 14  7  1  0
M  END

$$$$
No_93-gen_results_new/Mpro_initial_molecule_p3/2024-06-19-20-31-25/
     RDKit          3D

 28 30  0  0  0  0  0  0  0  0999 V2000
  -10.3383   15.1532   67.5971 C   0  0  0  0  0  0  0  0  0  0  0  0
  -10.7220   15.1619   68.8301 N   0  0  0  0  0  0  0  0  0  0  0  0
  -10.4044   16.2024   69.6852 N   0  0  0  0  0  0  0  0  0  0  0  0
   -9.7271   17.3221   69.2607 C   0  0  0  0  0  0  0  0  0  0  0  0
   -9.3095   17.3212   67.9557 N   0  0  0  0  0  0  0  0  0  0  0  0
   -9.5450   16.2958   67.0814 C   0  0  0  0  0  0  0  0  0  0  0  0
  -10.8644   16.0907   71.0374 C   0  0  0  0  0  0  0  0  0  0  0  0
   -8.5330   18.4792   67.4604 C   0  0  0  0  0  0  0  0  0  0  0  0
   -9.5433   18.2987   69.9938 O   0  0  0  0  0  0  0  0  0  0  0  0
   -9.1481   16.2876   65.9124 O   0  0  0  0  0  0  0  0  0  0  0  0
  -10.7304   14.0247   66.8209 C   0  0  0  0  0  0  0  0  0  0  0  0
  -11.1003   13.0895   66.2465 N   0  0  0  0  0  0  0  0  0  0  0  0
   -7.0275   18.2876   67.7219 C   0  0  0  0  0  0  0  0  0  0  0  0
  -10.0126   16.3511   72.1395 C   0  0  0  0  0  0  0  0  0  0  0  0
  -10.4883   16.2212   73.4591 C   0  0  0  0  0  0  0  0  0  0  0  0
  -11.8103   15.8022   73.6966 C   0  0  0  0  0  0  0  0  0  0  0  0
  -12.6594   15.5153   72.6113 C   0  0  0  0  0  0  0  0  0  0  0  0
  -12.1896   15.6561   71.2886 C   0  0  0  0  0  0  0  0  0  0  0  0
  -12.2484   15.6088   75.0145 O   0  0  0  0  0  0  0  0  0  0  0  0
   -6.4522   19.3083   67.8828 C   0  0  0  0  0  0  0  0  0  0  0  0
   -6.2559   20.3852   67.0148 C   0  0  0  0  0  0  0  0  0  0  0  0
   -5.1087   21.1983   66.9518 C   0  0  0  0  0  0  0  0  0  0  0  0
   -4.2339   21.0627   68.0246 C   0  0  0  0  0  0  0  0  0  0  0  0
   -4.2777   19.9445   68.9693 C   0  0  0  0  0  0  0  0  0  0  0  0
   -5.3283   19.1174   68.9265 C   0  0  0  0  0  0  0  0  0  0  0  0
   -5.0762   22.2351   66.1703 O   0  0  0  0  0  0  0  0  0  0  0  0
  -11.8765   16.5250   75.9063 C   0  0  0  0  0  0  0  0  0  0  0  0
  -13.9761   14.9529   72.7867 O   0  0  0  0  0  0  0  0  0  0  0  0
  1  2  2  0
  1  6  1  0
  1 11  1  0
  2  3  1  0
  3  4  1  0
  3  7  1  0
  4  9  2  0
  4  5  1  0
  5  6  1  0
  5  8  1  0
  6 10  2  0
  8 13  1  0
 11 12  3  0
 16 19  1  0
 13 20  1  0
 22 26  1  0
 19 27  1  0
 17 28  1  0
 20 21  2  0
 21 22  1  0
 22 23  2  0
 23 24  1  0
 24 25  2  0
 25 20  1  0
  7 18  2  0
 18 17  1  0
 17 16  2  0
 16 15  1  0
 15 14  2  0
 14  7  1  0
M  END

$$$$
No_94-gen_results_new/Mpro_initial_molecule_p3/2024-06-19-20-31-25/
     RDKit          3D

 28 30  0  0  0  0  0  0  0  0999 V2000
  -10.3383   15.1532   67.5971 C   0  0  0  0  0  0  0  0  0  0  0  0
  -10.7220   15.1619   68.8301 N   0  0  0  0  0  0  0  0  0  0  0  0
  -10.4044   16.2024   69.6852 N   0  0  0  0  0  0  0  0  0  0  0  0
   -9.7271   17.3221   69.2607 C   0  0  0  0  0  0  0  0  0  0  0  0
   -9.3095   17.3212   67.9557 N   0  0  0  0  0  0  0  0  0  0  0  0
   -9.5450   16.2958   67.0814 C   0  0  0  0  0  0  0  0  0  0  0  0
  -10.8644   16.0907   71.0374 C   0  0  0  0  0  0  0  0  0  0  0  0
   -8.5330   18.4792   67.4604 C   0  0  0  0  0  0  0  0  0  0  0  0
   -9.5433   18.2987   69.9938 O   0  0  0  0  0  0  0  0  0  0  0  0
   -9.1481   16.2876   65.9124 O   0  0  0  0  0  0  0  0  0  0  0  0
  -10.7304   14.0247   66.8209 C   0  0  0  0  0  0  0  0  0  0  0  0
  -11.1003   13.0895   66.2465 N   0  0  0  0  0  0  0  0  0  0  0  0
   -7.0275   18.2876   67.7219 C   0  0  0  0  0  0  0  0  0  0  0  0
  -10.0126   16.3511   72.1395 C   0  0  0  0  0  0  0  0  0  0  0  0
  -10.4883   16.2212   73.4591 C   0  0  0  0  0  0  0  0  0  0  0  0
  -11.8103   15.8022   73.6966 C   0  0  0  0  0  0  0  0  0  0  0  0
  -12.6594   15.5153   72.6113 C   0  0  0  0  0  0  0  0  0  0  0  0
  -12.1896   15.6561   71.2886 C   0  0  0  0  0  0  0  0  0  0  0  0
  -12.3486   15.5799   75.3255 Cl  0  0  0  0  0  0  0  0  0  0  0  0
   -6.4523   19.3079   67.8835 C   0  0  0  0  0  0  0  0  0  0  0  0
   -4.9674   19.3665   67.8795 C   0  0  0  0  0  0  0  0  0  0  0  0
   -4.2474   20.6429   68.0405 C   0  0  0  0  0  0  0  0  0  0  0  0
   -2.7799   20.4585   67.8108 C   0  0  0  0  0  0  0  0  0  0  0  0
   -2.2370   19.1734   67.4842 C   0  0  0  0  0  0  0  0  0  0  0  0
   -3.0113   17.9909   67.3027 C   0  0  0  0  0  0  0  0  0  0  0  0
   -4.4023   18.1070   67.4917 C   0  0  0  0  0  0  0  0  0  0  0  0
  -14.1199   14.9552   72.8036 C   0  0  0  0  0  0  0  0  0  0  0  0
   -0.8602   19.0756   67.3794 O   0  0  0  0  0  0  0  0  0  0  0  0
  1  2  2  0
  1  6  1  0
  1 11  1  0
  2  3  1  0
  3  4  1  0
  3  7  1  0
  4  9  2  0
  4  5  1  0
  5  6  1  0
  5  8  1  0
  6 10  2  0
  8 13  1  0
 11 12  3  0
 16 19  1  0
 13 20  1  0
 20 21  1  0
 17 27  1  0
 24 28  1  0
  7 18  2  0
 18 17  1  0
 17 16  2  0
 16 15  1  0
 15 14  2  0
 14  7  1  0
 21 22  2  0
 22 23  1  0
 23 24  2  0
 24 25  1  0
 25 26  2  0
 26 21  1  0
M  END

$$$$
No_95-gen_results_new/Mpro_initial_molecule_p3/2024-06-19-20-31-25/
     RDKit          3D

 28 30  0  0  0  0  0  0  0  0999 V2000
  -10.3383   15.1532   67.5971 C   0  0  0  0  0  0  0  0  0  0  0  0
  -10.7220   15.1619   68.8301 N   0  0  0  0  0  0  0  0  0  0  0  0
  -10.4044   16.2024   69.6852 N   0  0  0  0  0  0  0  0  0  0  0  0
   -9.7271   17.3221   69.2607 C   0  0  0  0  0  0  0  0  0  0  0  0
   -9.3095   17.3212   67.9557 N   0  0  0  0  0  0  0  0  0  0  0  0
   -9.5450   16.2958   67.0814 C   0  0  0  0  0  0  0  0  0  0  0  0
  -10.8644   16.0907   71.0374 C   0  0  0  0  0  0  0  0  0  0  0  0
   -8.5330   18.4792   67.4604 C   0  0  0  0  0  0  0  0  0  0  0  0
   -9.5433   18.2987   69.9938 O   0  0  0  0  0  0  0  0  0  0  0  0
   -9.1481   16.2876   65.9124 O   0  0  0  0  0  0  0  0  0  0  0  0
  -10.7304   14.0247   66.8209 C   0  0  0  0  0  0  0  0  0  0  0  0
  -11.1003   13.0895   66.2465 N   0  0  0  0  0  0  0  0  0  0  0  0
   -7.0275   18.2876   67.7219 C   0  0  0  0  0  0  0  0  0  0  0  0
  -10.0126   16.3511   72.1395 C   0  0  0  0  0  0  0  0  0  0  0  0
  -10.4883   16.2212   73.4591 C   0  0  0  0  0  0  0  0  0  0  0  0
  -11.8103   15.8022   73.6966 C   0  0  0  0  0  0  0  0  0  0  0  0
  -12.6594   15.5153   72.6113 C   0  0  0  0  0  0  0  0  0  0  0  0
  -12.1896   15.6561   71.2886 C   0  0  0  0  0  0  0  0  0  0  0  0
  -12.3486   15.5799   75.3255 Cl  0  0  0  0  0  0  0  0  0  0  0  0
   -6.3058   19.3592   66.9157 C   0  0  0  0  0  0  0  0  0  0  0  0
   -4.9894   19.4432   66.9687 C   0  0  0  0  0  0  0  0  0  0  0  0
   -4.3236   18.5683   67.6963 C   0  0  0  0  0  0  0  0  0  0  0  0
   -5.0284   17.3827   68.4004 C   0  0  0  0  0  0  0  0  0  0  0  0
   -6.4080   17.3542   68.3149 C   0  0  0  0  0  0  0  0  0  0  0  0
   -4.2655   20.4762   66.3130 C   0  0  0  0  0  0  0  0  0  0  0  0
   -3.1303   20.7450   66.7247 O   0  0  0  0  0  0  0  0  0  0  0  0
   -4.9155   21.4995   65.6205 N   0  0  0  0  0  0  0  0  0  0  0  0
  -14.0278   15.0074   72.7866 O   0  0  0  0  0  0  0  0  0  0  0  0
  1  2  2  0
  1  6  1  0
  1 11  1  0
  2  3  1  0
  3  4  1  0
  3  7  1  0
  4  9  2  0
  4  5  1  0
  5  6  1  0
  5  8  1  0
  6 10  2  0
  8 13  1  0
 11 12  3  0
 16 19  1  0
 21 25  1  0
 25 26  2  0
 25 27  1  0
 17 28  1  0
 13 20  2  0
 20 21  1  0
 21 22  2  0
 22 23  1  0
 23 24  2  0
 24 13  1  0
  7 18  2  0
 18 17  1  0
 17 16  2  0
 16 15  1  0
 15 14  2  0
 14  7  1  0
M  END

$$$$
No_96-gen_results_new/Mpro_initial_molecule_p3/2024-06-19-20-31-25/
     RDKit          3D

 25 27  0  0  0  0  0  0  0  0999 V2000
  -10.3383   15.1532   67.5971 C   0  0  0  0  0  0  0  0  0  0  0  0
  -10.7220   15.1619   68.8301 N   0  0  0  0  0  0  0  0  0  0  0  0
  -10.4044   16.2024   69.6852 N   0  0  0  0  0  0  0  0  0  0  0  0
   -9.7271   17.3221   69.2607 C   0  0  0  0  0  0  0  0  0  0  0  0
   -9.3095   17.3212   67.9557 N   0  0  0  0  0  0  0  0  0  0  0  0
   -9.5450   16.2958   67.0814 C   0  0  0  0  0  0  0  0  0  0  0  0
  -10.8644   16.0907   71.0374 C   0  0  0  0  0  0  0  0  0  0  0  0
   -8.5330   18.4792   67.4604 C   0  0  0  0  0  0  0  0  0  0  0  0
   -9.5433   18.2987   69.9938 O   0  0  0  0  0  0  0  0  0  0  0  0
   -9.1481   16.2876   65.9124 O   0  0  0  0  0  0  0  0  0  0  0  0
  -10.7304   14.0247   66.8209 C   0  0  0  0  0  0  0  0  0  0  0  0
  -11.1003   13.0895   66.2465 N   0  0  0  0  0  0  0  0  0  0  0  0
   -7.0275   18.2876   67.7219 C   0  0  0  0  0  0  0  0  0  0  0  0
  -10.0126   16.3511   72.1395 C   0  0  0  0  0  0  0  0  0  0  0  0
  -10.4883   16.2212   73.4591 C   0  0  0  0  0  0  0  0  0  0  0  0
  -11.8103   15.8022   73.6966 C   0  0  0  0  0  0  0  0  0  0  0  0
  -12.6594   15.5153   72.6113 C   0  0  0  0  0  0  0  0  0  0  0  0
  -12.1896   15.6561   71.2886 C   0  0  0  0  0  0  0  0  0  0  0  0
  -12.3486   15.5799   75.3255 Cl  0  0  0  0  0  0  0  0  0  0  0  0
   -6.3058   19.3592   66.9157 C   0  0  0  0  0  0  0  0  0  0  0  0
   -4.9894   19.4432   66.9687 C   0  0  0  0  0  0  0  0  0  0  0  0
   -4.2885   20.4306   66.2890 C   0  0  0  0  0  0  0  0  0  0  0  0
   -4.9684   21.5146   65.8589 C   0  0  0  0  0  0  0  0  0  0  0  0
   -6.3360   21.4887   65.8474 N   0  0  0  0  0  0  0  0  0  0  0  0
   -7.0197   20.4703   66.3830 C   0  0  0  0  0  0  0  0  0  0  0  0
  1  2  2  0
  1  6  1  0
  1 11  1  0
  2  3  1  0
  3  4  1  0
  3  7  1  0
  4  9  2  0
  4  5  1  0
  5  6  1  0
  5  8  1  0
  6 10  2  0
  8 13  1  0
 11 12  3  0
 16 19  1  0
 13 20  1  0
 20 21  2  0
 21 22  1  0
 22 23  2  0
 23 24  1  0
 24 25  2  0
 25 20  1  0
  7 18  2  0
 18 17  1  0
 17 16  2  0
 16 15  1  0
 15 14  2  0
 14  7  1  0
M  END

$$$$
No_97-gen_results_new/Mpro_initial_molecule_p3/2024-06-19-20-31-25/
     RDKit          3D

 28 30  0  0  0  0  0  0  0  0999 V2000
  -10.3383   15.1532   67.5971 C   0  0  0  0  0  0  0  0  0  0  0  0
  -10.7220   15.1619   68.8301 N   0  0  0  0  0  0  0  0  0  0  0  0
  -10.4044   16.2024   69.6852 N   0  0  0  0  0  0  0  0  0  0  0  0
   -9.7271   17.3221   69.2607 C   0  0  0  0  0  0  0  0  0  0  0  0
   -9.3095   17.3212   67.9557 N   0  0  0  0  0  0  0  0  0  0  0  0
   -9.5450   16.2958   67.0814 C   0  0  0  0  0  0  0  0  0  0  0  0
  -10.8644   16.0907   71.0374 C   0  0  0  0  0  0  0  0  0  0  0  0
   -8.5330   18.4792   67.4604 C   0  0  0  0  0  0  0  0  0  0  0  0
   -9.5433   18.2987   69.9938 O   0  0  0  0  0  0  0  0  0  0  0  0
   -9.1481   16.2876   65.9124 O   0  0  0  0  0  0  0  0  0  0  0  0
  -10.7304   14.0247   66.8209 C   0  0  0  0  0  0  0  0  0  0  0  0
  -11.1003   13.0895   66.2465 N   0  0  0  0  0  0  0  0  0  0  0  0
   -7.0275   18.2876   67.7219 C   0  0  0  0  0  0  0  0  0  0  0  0
  -10.0126   16.3511   72.1395 C   0  0  0  0  0  0  0  0  0  0  0  0
  -10.4883   16.2212   73.4591 C   0  0  0  0  0  0  0  0  0  0  0  0
  -11.8103   15.8022   73.6966 C   0  0  0  0  0  0  0  0  0  0  0  0
  -12.6594   15.5153   72.6113 C   0  0  0  0  0  0  0  0  0  0  0  0
  -12.1896   15.6561   71.2886 C   0  0  0  0  0  0  0  0  0  0  0  0
  -12.3486   15.5799   75.3255 Cl  0  0  0  0  0  0  0  0  0  0  0  0
   -6.4523   19.3079   67.8835 C   0  0  0  0  0  0  0  0  0  0  0  0
   -6.2032   19.5449   69.0280 C   0  0  0  0  0  0  0  0  0  0  0  0
   -5.0283   20.3340   69.5330 C   0  0  0  0  0  0  0  0  0  0  0  0
   -4.0927   20.0899   68.5616 C   0  0  0  0  0  0  0  0  0  0  0  0
   -4.0674   19.9577   67.2892 C   0  0  0  0  0  0  0  0  0  0  0  0
   -5.2619   19.2411   66.9215 C   0  0  0  0  0  0  0  0  0  0  0  0
   -2.8149   21.0251   68.9273 O   0  0  0  0  0  0  0  0  0  0  0  0
   -3.0841   20.2583   66.4072 O   0  0  0  0  0  0  0  0  0  0  0  0
   -3.2229   20.1085   65.0365 C   0  0  0  0  0  0  0  0  0  0  0  0
  1  2  2  0
  1  6  1  0
  1 11  1  0
  2  3  1  0
  3  4  1  0
  3  7  1  0
  4  9  2  0
  4  5  1  0
  5  6  1  0
  5  8  1  0
  6 10  2  0
  8 13  1  0
 11 12  3  0
 16 19  1  0
 13 20  1  0
 23 26  1  0
 24 27  1  0
 27 28  1  0
 20 21  2  0
 21 22  1  0
 22 23  2  0
 23 24  1  0
 24 25  2  0
 25 20  1  0
  7 18  2  0
 18 17  1  0
 17 16  2  0
 16 15  1  0
 15 14  2  0
 14  7  1  0
M  END

$$$$
No_98-gen_results_new/Mpro_initial_molecule_p3/2024-06-19-20-31-25/
     RDKit          3D

 28 30  0  0  0  0  0  0  0  0999 V2000
  -10.3383   15.1532   67.5971 C   0  0  0  0  0  0  0  0  0  0  0  0
  -10.7220   15.1619   68.8301 N   0  0  0  0  0  0  0  0  0  0  0  0
  -10.4044   16.2024   69.6852 N   0  0  0  0  0  0  0  0  0  0  0  0
   -9.7271   17.3221   69.2607 C   0  0  0  0  0  0  0  0  0  0  0  0
   -9.3095   17.3212   67.9557 N   0  0  0  0  0  0  0  0  0  0  0  0
   -9.5450   16.2958   67.0814 C   0  0  0  0  0  0  0  0  0  0  0  0
  -10.8644   16.0907   71.0374 C   0  0  0  0  0  0  0  0  0  0  0  0
   -8.5330   18.4792   67.4604 C   0  0  0  0  0  0  0  0  0  0  0  0
   -9.5433   18.2987   69.9938 O   0  0  0  0  0  0  0  0  0  0  0  0
   -9.1481   16.2876   65.9124 O   0  0  0  0  0  0  0  0  0  0  0  0
  -10.7304   14.0247   66.8209 C   0  0  0  0  0  0  0  0  0  0  0  0
  -11.1003   13.0895   66.2465 N   0  0  0  0  0  0  0  0  0  0  0  0
   -7.0275   18.2876   67.7219 C   0  0  0  0  0  0  0  0  0  0  0  0
  -10.0126   16.3511   72.1395 C   0  0  0  0  0  0  0  0  0  0  0  0
  -10.4883   16.2212   73.4591 C   0  0  0  0  0  0  0  0  0  0  0  0
  -11.8103   15.8022   73.6966 C   0  0  0  0  0  0  0  0  0  0  0  0
  -12.6594   15.5153   72.6113 C   0  0  0  0  0  0  0  0  0  0  0  0
  -12.1896   15.6561   71.2886 C   0  0  0  0  0  0  0  0  0  0  0  0
  -12.2768   15.6000   75.1088 C   0  0  0  0  0  0  0  0  0  0  0  0
   -6.5341   17.3729   68.3685 C   0  0  0  0  0  0  0  0  0  0  0  0
   -5.1308   17.1882   68.5568 C   0  0  0  0  0  0  0  0  0  0  0  0
   -6.2352   18.5841   66.5228 C   0  0  0  0  0  0  0  0  0  0  0  0
   -4.8738   18.3561   66.5020 C   0  0  0  0  0  0  0  0  0  0  0  0
   -4.3443   17.5536   67.4637 C   0  0  0  0  0  0  0  0  0  0  0  0
  -12.5816   16.5944   75.6960 O   0  0  0  0  0  0  0  0  0  0  0  0
  -11.8941   14.5564   75.6562 O   0  0  0  0  0  0  0  0  0  0  0  0
   -3.0212   17.2373   67.3895 F   0  0  0  0  0  0  0  0  0  0  0  0
  -13.9739   15.0184   72.8138 O   0  0  0  0  0  0  0  0  0  0  0  0
  1  2  2  0
  1  6  1  0
  1 11  1  0
  2  3  1  0
  3  4  1  0
  3  7  1  0
  4  9  2  0
  4  5  1  0
  5  6  1  0
  5  8  1  0
  6 10  2  0
  8 13  1  0
 11 12  3  0
 16 19  1  0
 19 25  2  0
 19 26  1  0
 24 27  1  0
 17 28  1  0
 13 20  2  0
 20 21  1  0
 21 24  2  0
 24 23  1  0
 23 22  2  0
 22 13  1  0
  7 18  2  0
 18 17  1  0
 17 16  2  0
 16 15  1  0
 15 14  2  0
 14  7  1  0
M  END

$$$$
No_99-gen_results_new/Mpro_initial_molecule_p3/2024-06-19-20-31-25/
     RDKit          3D

 27 29  0  0  0  0  0  0  0  0999 V2000
  -10.3383   15.1532   67.5971 C   0  0  0  0  0  0  0  0  0  0  0  0
  -10.7220   15.1619   68.8301 N   0  0  0  0  0  0  0  0  0  0  0  0
  -10.4044   16.2024   69.6852 N   0  0  0  0  0  0  0  0  0  0  0  0
   -9.7271   17.3221   69.2607 C   0  0  0  0  0  0  0  0  0  0  0  0
   -9.3095   17.3212   67.9557 N   0  0  0  0  0  0  0  0  0  0  0  0
   -9.5450   16.2958   67.0814 C   0  0  0  0  0  0  0  0  0  0  0  0
  -10.8644   16.0907   71.0374 C   0  0  0  0  0  0  0  0  0  0  0  0
   -8.5330   18.4792   67.4604 C   0  0  0  0  0  0  0  0  0  0  0  0
   -9.5433   18.2987   69.9938 O   0  0  0  0  0  0  0  0  0  0  0  0
   -9.1481   16.2876   65.9124 O   0  0  0  0  0  0  0  0  0  0  0  0
  -10.7304   14.0247   66.8209 C   0  0  0  0  0  0  0  0  0  0  0  0
  -11.1003   13.0895   66.2465 N   0  0  0  0  0  0  0  0  0  0  0  0
   -7.0275   18.2876   67.7219 C   0  0  0  0  0  0  0  0  0  0  0  0
  -10.0126   16.3511   72.1395 C   0  0  0  0  0  0  0  0  0  0  0  0
  -10.4883   16.2212   73.4591 C   0  0  0  0  0  0  0  0  0  0  0  0
  -11.8103   15.8022   73.6966 C   0  0  0  0  0  0  0  0  0  0  0  0
  -12.6594   15.5153   72.6113 C   0  0  0  0  0  0  0  0  0  0  0  0
  -12.1896   15.6561   71.2886 C   0  0  0  0  0  0  0  0  0  0  0  0
  -12.2768   15.6000   75.1088 C   0  0  0  0  0  0  0  0  0  0  0  0
   -6.3059   19.3590   66.9154 C   0  0  0  0  0  0  0  0  0  0  0  0
   -4.9893   19.4432   66.9685 C   0  0  0  0  0  0  0  0  0  0  0  0
   -4.2885   20.4304   66.2887 C   0  0  0  0  0  0  0  0  0  0  0  0
   -4.9684   21.5145   65.8586 C   0  0  0  0  0  0  0  0  0  0  0  0
   -6.3744   21.4842   65.8345 C   0  0  0  0  0  0  0  0  0  0  0  0
   -7.0549   20.4513   66.4027 C   0  0  0  0  0  0  0  0  0  0  0  0
  -12.5215   16.2807   75.8677 N   0  0  0  0  0  0  0  0  0  0  0  0
   -4.2057   22.5471   65.2374 O   0  0  0  0  0  0  0  0  0  0  0  0
  1  2  2  0
  1  6  1  0
  1 11  1  0
  2  3  1  0
  3  4  1  0
  3  7  1  0
  4  9  2  0
  4  5  1  0
  5  6  1  0
  5  8  1  0
  6 10  2  0
  8 13  1  0
 11 12  3  0
 16 19  1  0
 13 20  1  0
 19 26  3  0
 23 27  1  0
 20 21  2  0
 21 22  1  0
 22 23  2  0
 23 24  1  0
 24 25  2  0
 25 20  1  0
  7 18  2  0
 18 17  1  0
 17 16  2  0
 16 15  1  0
 15 14  2  0
 14  7  1  0
M  END

$$$$
No_100-gen_results_new/Mpro_initial_molecule_p3/2024-06-19-20-31-25/
     RDKit          3D

 28 30  0  0  0  0  0  0  0  0999 V2000
  -10.3383   15.1532   67.5971 C   0  0  0  0  0  0  0  0  0  0  0  0
  -10.7220   15.1619   68.8301 N   0  0  0  0  0  0  0  0  0  0  0  0
  -10.4044   16.2024   69.6852 N   0  0  0  0  0  0  0  0  0  0  0  0
   -9.7271   17.3221   69.2607 C   0  0  0  0  0  0  0  0  0  0  0  0
   -9.3095   17.3212   67.9557 N   0  0  0  0  0  0  0  0  0  0  0  0
   -9.5450   16.2958   67.0814 C   0  0  0  0  0  0  0  0  0  0  0  0
  -10.8644   16.0907   71.0374 C   0  0  0  0  0  0  0  0  0  0  0  0
   -8.5330   18.4792   67.4604 C   0  0  0  0  0  0  0  0  0  0  0  0
   -9.5433   18.2987   69.9938 O   0  0  0  0  0  0  0  0  0  0  0  0
   -9.1481   16.2876   65.9124 O   0  0  0  0  0  0  0  0  0  0  0  0
  -10.7304   14.0247   66.8209 C   0  0  0  0  0  0  0  0  0  0  0  0
  -11.1003   13.0895   66.2465 N   0  0  0  0  0  0  0  0  0  0  0  0
   -7.0275   18.2876   67.7219 C   0  0  0  0  0  0  0  0  0  0  0  0
  -10.0126   16.3511   72.1395 C   0  0  0  0  0  0  0  0  0  0  0  0
  -10.4883   16.2212   73.4591 C   0  0  0  0  0  0  0  0  0  0  0  0
  -11.8103   15.8022   73.6966 C   0  0  0  0  0  0  0  0  0  0  0  0
  -12.6594   15.5153   72.6113 C   0  0  0  0  0  0  0  0  0  0  0  0
  -12.1896   15.6561   71.2886 C   0  0  0  0  0  0  0  0  0  0  0  0
  -12.2768   15.6000   75.1088 C   0  0  0  0  0  0  0  0  0  0  0  0
   -6.3059   19.3590   66.9154 C   0  0  0  0  0  0  0  0  0  0  0  0
   -4.9893   19.4432   66.9685 C   0  0  0  0  0  0  0  0  0  0  0  0
   -4.2885   20.4304   66.2887 C   0  0  0  0  0  0  0  0  0  0  0  0
   -4.9684   21.5145   65.8586 C   0  0  0  0  0  0  0  0  0  0  0  0
   -6.3744   21.4842   65.8345 C   0  0  0  0  0  0  0  0  0  0  0  0
   -7.0549   20.4513   66.4027 C   0  0  0  0  0  0  0  0  0  0  0  0
  -12.3532   14.5920   75.5994 O   0  0  0  0  0  0  0  0  0  0  0  0
  -12.4209   16.7480   75.8013 N   0  0  0  0  0  0  0  0  0  0  0  0
   -4.2057   22.5471   65.2374 O   0  0  0  0  0  0  0  0  0  0  0  0
  1  2  2  0
  1  6  1  0
  1 11  1  0
  2  3  1  0
  3  4  1  0
  3  7  1  0
  4  9  2  0
  4  5  1  0
  5  6  1  0
  5  8  1  0
  6 10  2  0
  8 13  1  0
 11 12  3  0
 16 19  1  0
 13 20  1  0
 19 26  2  0
 19 27  1  0
 23 28  1  0
 20 21  2  0
 21 22  1  0
 22 23  2  0
 23 24  1  0
 24 25  2  0
 25 20  1  0
  7 18  2  0
 18 17  1  0
 17 16  2  0
 16 15  1  0
 15 14  2  0
 14  7  1  0
M  END

$$$$
No_101-gen_results_new/Mpro_initial_molecule_p3/2024-06-19-20-31-25/
     RDKit          3D

 28 30  0  0  0  0  0  0  0  0999 V2000
  -10.3383   15.1532   67.5971 C   0  0  0  0  0  0  0  0  0  0  0  0
  -10.7220   15.1619   68.8301 N   0  0  0  0  0  0  0  0  0  0  0  0
  -10.4044   16.2024   69.6852 N   0  0  0  0  0  0  0  0  0  0  0  0
   -9.7271   17.3221   69.2607 C   0  0  0  0  0  0  0  0  0  0  0  0
   -9.3095   17.3212   67.9557 N   0  0  0  0  0  0  0  0  0  0  0  0
   -9.5450   16.2958   67.0814 C   0  0  0  0  0  0  0  0  0  0  0  0
  -10.8644   16.0907   71.0374 C   0  0  0  0  0  0  0  0  0  0  0  0
   -8.5330   18.4792   67.4604 C   0  0  0  0  0  0  0  0  0  0  0  0
   -9.5433   18.2987   69.9938 O   0  0  0  0  0  0  0  0  0  0  0  0
   -9.1481   16.2876   65.9124 O   0  0  0  0  0  0  0  0  0  0  0  0
  -10.7304   14.0247   66.8209 C   0  0  0  0  0  0  0  0  0  0  0  0
  -11.1003   13.0895   66.2465 N   0  0  0  0  0  0  0  0  0  0  0  0
   -7.0275   18.2876   67.7219 C   0  0  0  0  0  0  0  0  0  0  0  0
  -10.0126   16.3511   72.1395 C   0  0  0  0  0  0  0  0  0  0  0  0
  -10.4883   16.2212   73.4591 C   0  0  0  0  0  0  0  0  0  0  0  0
  -11.8103   15.8022   73.6966 C   0  0  0  0  0  0  0  0  0  0  0  0
  -12.6594   15.5153   72.6113 C   0  0  0  0  0  0  0  0  0  0  0  0
  -12.1896   15.6561   71.2886 C   0  0  0  0  0  0  0  0  0  0  0  0
  -12.2768   15.6000   75.1088 C   0  0  0  0  0  0  0  0  0  0  0  0
   -6.3059   19.3590   66.9154 C   0  0  0  0  0  0  0  0  0  0  0  0
   -4.9893   19.4432   66.9685 C   0  0  0  0  0  0  0  0  0  0  0  0
   -4.2977   20.4624   66.3233 C   0  0  0  0  0  0  0  0  0  0  0  0
   -5.0037   21.5271   65.8703 C   0  0  0  0  0  0  0  0  0  0  0  0
   -6.4397   21.4429   65.7740 C   0  0  0  0  0  0  0  0  0  0  0  0
   -7.0865   20.3581   66.2791 C   0  0  0  0  0  0  0  0  0  0  0  0
  -12.3532   14.5919   75.5994 O   0  0  0  0  0  0  0  0  0  0  0  0
  -12.4210   16.7479   75.8014 N   0  0  0  0  0  0  0  0  0  0  0  0
   -4.2519   22.5646   65.2101 N   0  0  0  0  0  0  0  0  0  0  0  0
  1  2  2  0
  1  6  1  0
  1 11  1  0
  2  3  1  0
  3  4  1  0
  3  7  1  0
  4  9  2  0
  4  5  1  0
  5  6  1  0
  5  8  1  0
  6 10  2  0
  8 13  1  0
 11 12  3  0
 16 19  1  0
 13 20  1  0
 19 26  2  0
 19 27  1  0
 23 28  1  0
 20 21  2  0
 21 22  1  0
 22 23  2  0
 23 24  1  0
 24 25  2  0
 25 20  1  0
  7 18  2  0
 18 17  1  0
 17 16  2  0
 16 15  1  0
 15 14  2  0
 14  7  1  0
M  END

$$$$
No_102-gen_results_new/Mpro_initial_molecule_p3/2024-06-19-20-31-25/
     RDKit          3D

 28 30  0  0  0  0  0  0  0  0999 V2000
  -10.3383   15.1532   67.5971 C   0  0  0  0  0  0  0  0  0  0  0  0
  -10.7220   15.1619   68.8301 N   0  0  0  0  0  0  0  0  0  0  0  0
  -10.4044   16.2024   69.6852 N   0  0  0  0  0  0  0  0  0  0  0  0
   -9.7271   17.3221   69.2607 C   0  0  0  0  0  0  0  0  0  0  0  0
   -9.3095   17.3212   67.9557 N   0  0  0  0  0  0  0  0  0  0  0  0
   -9.5450   16.2958   67.0814 C   0  0  0  0  0  0  0  0  0  0  0  0
  -10.8644   16.0907   71.0374 C   0  0  0  0  0  0  0  0  0  0  0  0
   -8.5330   18.4792   67.4604 C   0  0  0  0  0  0  0  0  0  0  0  0
   -9.5433   18.2987   69.9938 O   0  0  0  0  0  0  0  0  0  0  0  0
   -9.1481   16.2876   65.9124 O   0  0  0  0  0  0  0  0  0  0  0  0
  -10.7304   14.0247   66.8209 C   0  0  0  0  0  0  0  0  0  0  0  0
  -11.1003   13.0895   66.2465 N   0  0  0  0  0  0  0  0  0  0  0  0
   -7.0275   18.2876   67.7219 C   0  0  0  0  0  0  0  0  0  0  0  0
  -10.0126   16.3511   72.1395 C   0  0  0  0  0  0  0  0  0  0  0  0
  -10.4883   16.2212   73.4591 C   0  0  0  0  0  0  0  0  0  0  0  0
  -11.8103   15.8022   73.6966 C   0  0  0  0  0  0  0  0  0  0  0  0
  -12.6594   15.5153   72.6113 C   0  0  0  0  0  0  0  0  0  0  0  0
  -12.1896   15.6561   71.2886 C   0  0  0  0  0  0  0  0  0  0  0  0
  -12.3486   15.5799   75.3255 Cl  0  0  0  0  0  0  0  0  0  0  0  0
   -6.5344   17.3734   68.3696 C   0  0  0  0  0  0  0  0  0  0  0  0
   -5.1310   17.1884   68.5570 C   0  0  0  0  0  0  0  0  0  0  0  0
   -6.2282   19.1878   66.9085 C   0  0  0  0  0  0  0  0  0  0  0  0
   -6.6903   20.2577   66.0908 C   0  0  0  0  0  0  0  0  0  0  0  0
   -4.2962   18.0595   67.8350 C   0  0  0  0  0  0  0  0  0  0  0  0
   -4.8139   19.0391   67.0576 C   0  0  0  0  0  0  0  0  0  0  0  0
   -8.0239   20.3915   65.9627 O   0  0  0  0  0  0  0  0  0  0  0  0
   -6.0043   21.0363   65.4865 O   0  0  0  0  0  0  0  0  0  0  0  0
   -4.6203   16.1736   69.3543 O   0  0  0  0  0  0  0  0  0  0  0  0
  1  2  2  0
  1  6  1  0
  1 11  1  0
  2  3  1  0
  3  4  1  0
  3  7  1  0
  4  9  2  0
  4  5  1  0
  5  6  1  0
  5  8  1  0
  6 10  2  0
  8 13  1  0
 11 12  3  0
 16 19  1  0
 22 23  1  0
 23 26  2  0
 23 27  1  0
 21 28  1  0
  7 18  2  0
 18 17  1  0
 17 16  2  0
 16 15  1  0
 15 14  2  0
 14  7  1  0
 13 20  2  0
 20 21  1  0
 21 24  2  0
 24 25  1  0
 25 22  2  0
 22 13  1  0
M  END

$$$$
No_103-gen_results_new/Mpro_initial_molecule_p3/2024-06-19-20-31-25/
     RDKit          3D

 28 30  0  0  0  0  0  0  0  0999 V2000
  -10.3383   15.1532   67.5971 C   0  0  0  0  0  0  0  0  0  0  0  0
  -10.7220   15.1619   68.8301 N   0  0  0  0  0  0  0  0  0  0  0  0
  -10.4044   16.2024   69.6852 N   0  0  0  0  0  0  0  0  0  0  0  0
   -9.7271   17.3221   69.2607 C   0  0  0  0  0  0  0  0  0  0  0  0
   -9.3095   17.3212   67.9557 N   0  0  0  0  0  0  0  0  0  0  0  0
   -9.5450   16.2958   67.0814 C   0  0  0  0  0  0  0  0  0  0  0  0
  -10.8644   16.0907   71.0374 C   0  0  0  0  0  0  0  0  0  0  0  0
   -8.5330   18.4792   67.4604 C   0  0  0  0  0  0  0  0  0  0  0  0
   -9.5433   18.2987   69.9938 O   0  0  0  0  0  0  0  0  0  0  0  0
   -9.1481   16.2876   65.9124 O   0  0  0  0  0  0  0  0  0  0  0  0
  -10.7304   14.0247   66.8209 C   0  0  0  0  0  0  0  0  0  0  0  0
  -11.1003   13.0895   66.2465 N   0  0  0  0  0  0  0  0  0  0  0  0
   -7.0275   18.2876   67.7219 C   0  0  0  0  0  0  0  0  0  0  0  0
  -10.0126   16.3511   72.1395 C   0  0  0  0  0  0  0  0  0  0  0  0
  -10.4883   16.2212   73.4591 C   0  0  0  0  0  0  0  0  0  0  0  0
  -11.8103   15.8022   73.6966 C   0  0  0  0  0  0  0  0  0  0  0  0
  -12.6594   15.5153   72.6113 C   0  0  0  0  0  0  0  0  0  0  0  0
  -12.1896   15.6561   71.2886 C   0  0  0  0  0  0  0  0  0  0  0  0
  -12.2768   15.6000   75.1088 C   0  0  0  0  0  0  0  0  0  0  0  0
   -6.5341   17.3729   68.3685 C   0  0  0  0  0  0  0  0  0  0  0  0
   -5.1308   17.1882   68.5568 C   0  0  0  0  0  0  0  0  0  0  0  0
   -6.2282   19.1886   66.9092 C   0  0  0  0  0  0  0  0  0  0  0  0
   -4.8273   19.0035   67.0391 C   0  0  0  0  0  0  0  0  0  0  0  0
   -4.3060   18.0195   67.7979 C   0  0  0  0  0  0  0  0  0  0  0  0
  -12.3528   14.5927   75.5997 O   0  0  0  0  0  0  0  0  0  0  0  0
  -12.8124   16.6655   75.6553 O   0  0  0  0  0  0  0  0  0  0  0  0
  -13.9378   15.0246   72.7976 F   0  0  0  0  0  0  0  0  0  0  0  0
   -6.7606   20.1930   66.1163 O   0  0  0  0  0  0  0  0  0  0  0  0
  1  2  2  0
  1  6  1  0
  1 11  1  0
  2  3  1  0
  3  4  1  0
  3  7  1  0
  4  9  2  0
  4  5  1  0
  5  6  1  0
  5  8  1  0
  6 10  2  0
  8 13  1  0
 11 12  3  0
 16 19  1  0
 19 25  2  0
 19 26  1  0
 17 27  1  0
 22 28  1  0
 13 20  2  0
 20 21  1  0
 21 24  2  0
 24 23  1  0
 23 22  2  0
 22 13  1  0
  7 18  2  0
 18 17  1  0
 17 16  2  0
 16 15  1  0
 15 14  2  0
 14  7  1  0
M  END

$$$$
No_104-gen_results_new/Mpro_initial_molecule_p3/2024-06-19-20-31-25/
     RDKit          3D

 28 30  0  0  0  0  0  0  0  0999 V2000
  -10.3383   15.1532   67.5971 C   0  0  0  0  0  0  0  0  0  0  0  0
  -10.7220   15.1619   68.8301 N   0  0  0  0  0  0  0  0  0  0  0  0
  -10.4044   16.2024   69.6852 N   0  0  0  0  0  0  0  0  0  0  0  0
   -9.7271   17.3221   69.2607 C   0  0  0  0  0  0  0  0  0  0  0  0
   -9.3095   17.3212   67.9557 N   0  0  0  0  0  0  0  0  0  0  0  0
   -9.5450   16.2958   67.0814 C   0  0  0  0  0  0  0  0  0  0  0  0
  -10.8644   16.0907   71.0374 C   0  0  0  0  0  0  0  0  0  0  0  0
   -8.5330   18.4792   67.4604 C   0  0  0  0  0  0  0  0  0  0  0  0
   -9.5433   18.2987   69.9938 O   0  0  0  0  0  0  0  0  0  0  0  0
   -9.1481   16.2876   65.9124 O   0  0  0  0  0  0  0  0  0  0  0  0
  -10.7304   14.0247   66.8209 C   0  0  0  0  0  0  0  0  0  0  0  0
  -11.1003   13.0895   66.2465 N   0  0  0  0  0  0  0  0  0  0  0  0
   -7.0275   18.2876   67.7219 C   0  0  0  0  0  0  0  0  0  0  0  0
  -10.0126   16.3511   72.1395 C   0  0  0  0  0  0  0  0  0  0  0  0
  -10.4883   16.2212   73.4591 C   0  0  0  0  0  0  0  0  0  0  0  0
  -11.8103   15.8022   73.6966 C   0  0  0  0  0  0  0  0  0  0  0  0
  -12.6594   15.5153   72.6113 C   0  0  0  0  0  0  0  0  0  0  0  0
  -12.1896   15.6561   71.2886 C   0  0  0  0  0  0  0  0  0  0  0  0
  -12.2768   15.6000   75.1088 C   0  0  0  0  0  0  0  0  0  0  0  0
   -6.3059   19.3590   66.9154 C   0  0  0  0  0  0  0  0  0  0  0  0
   -4.9893   19.4432   66.9685 C   0  0  0  0  0  0  0  0  0  0  0  0
   -4.2977   20.4624   66.3233 C   0  0  0  0  0  0  0  0  0  0  0  0
   -5.0487   21.4852   65.8935 N   0  0  0  0  0  0  0  0  0  0  0  0
   -6.4109   21.4129   65.7935 C   0  0  0  0  0  0  0  0  0  0  0  0
   -7.0837   20.3875   66.3400 C   0  0  0  0  0  0  0  0  0  0  0  0
  -11.9586   16.3227   75.9335 O   0  0  0  0  0  0  0  0  0  0  0  0
  -12.7878   14.4773   75.3667 O   0  0  0  0  0  0  0  0  0  0  0  0
   -2.8254   20.5731   66.4536 C   0  0  0  0  0  0  0  0  0  0  0  0
  1  2  2  0
  1  6  1  0
  1 11  1  0
  2  3  1  0
  3  4  1  0
  3  7  1  0
  4  9  2  0
  4  5  1  0
  5  6  1  0
  5  8  1  0
  6 10  2  0
  8 13  1  0
 11 12  3  0
 16 19  1  0
 13 20  1  0
 19 26  2  0
 19 27  1  0
 22 28  1  0
 20 21  2  0
 21 22  1  0
 22 23  2  0
 23 24  1  0
 24 25  2  0
 25 20  1  0
  7 18  2  0
 18 17  1  0
 17 16  2  0
 16 15  1  0
 15 14  2  0
 14  7  1  0
M  END

$$$$
No_105-gen_results_new/Mpro_initial_molecule_p3/2024-06-19-20-31-25/
     RDKit          3D

 28 30  0  0  0  0  0  0  0  0999 V2000
  -10.3383   15.1532   67.5971 C   0  0  0  0  0  0  0  0  0  0  0  0
  -10.7220   15.1619   68.8301 N   0  0  0  0  0  0  0  0  0  0  0  0
  -10.4044   16.2024   69.6852 N   0  0  0  0  0  0  0  0  0  0  0  0
   -9.7271   17.3221   69.2607 C   0  0  0  0  0  0  0  0  0  0  0  0
   -9.3095   17.3212   67.9557 N   0  0  0  0  0  0  0  0  0  0  0  0
   -9.5450   16.2958   67.0814 C   0  0  0  0  0  0  0  0  0  0  0  0
  -10.8644   16.0907   71.0374 C   0  0  0  0  0  0  0  0  0  0  0  0
   -8.5330   18.4792   67.4604 C   0  0  0  0  0  0  0  0  0  0  0  0
   -9.5433   18.2987   69.9938 O   0  0  0  0  0  0  0  0  0  0  0  0
   -9.1481   16.2876   65.9124 O   0  0  0  0  0  0  0  0  0  0  0  0
  -10.7304   14.0247   66.8209 C   0  0  0  0  0  0  0  0  0  0  0  0
  -11.1003   13.0895   66.2465 N   0  0  0  0  0  0  0  0  0  0  0  0
   -7.0275   18.2876   67.7219 C   0  0  0  0  0  0  0  0  0  0  0  0
  -10.0126   16.3511   72.1395 C   0  0  0  0  0  0  0  0  0  0  0  0
  -10.4883   16.2212   73.4591 C   0  0  0  0  0  0  0  0  0  0  0  0
  -11.8103   15.8022   73.6966 C   0  0  0  0  0  0  0  0  0  0  0  0
  -12.6594   15.5153   72.6113 C   0  0  0  0  0  0  0  0  0  0  0  0
  -12.1896   15.6561   71.2886 C   0  0  0  0  0  0  0  0  0  0  0  0
  -12.2768   15.6000   75.1088 C   0  0  0  0  0  0  0  0  0  0  0  0
   -6.4522   19.3092   67.8826 C   0  0  0  0  0  0  0  0  0  0  0  0
  -12.5808   16.5955   75.6954 O   0  0  0  0  0  0  0  0  0  0  0  0
  -12.1193   14.5206   75.6006 O   0  0  0  0  0  0  0  0  0  0  0  0
   -5.0150   19.2530   67.8418 N   0  0  0  0  0  0  0  0  0  0  0  0
   -4.6394   17.8834   67.5410 C   0  0  0  0  0  0  0  0  0  0  0  0
   -3.2238   17.6111   67.4886 C   0  0  0  0  0  0  0  0  0  0  0  0
   -2.3749   18.7333   67.6479 C   0  0  0  0  0  0  0  0  0  0  0  0
   -2.7624   20.0194   67.9243 C   0  0  0  0  0  0  0  0  0  0  0  0
   -4.0883   20.2710   68.0158 C   0  0  0  0  0  0  0  0  0  0  0  0
  1  2  2  0
  1  6  1  0
  1 11  1  0
  2  3  1  0
  3  4  1  0
  3  7  1  0
  4  9  2  0
  4  5  1  0
  5  6  1  0
  5  8  1  0
  6 10  2  0
  8 13  1  0
 11 12  3  0
 16 19  1  0
 13 20  1  0
 19 21  2  0
 19 22  1  0
 20 23  1  0
 23 24  1  0
 24 25  1  0
 26 27  1  0
 23 28  1  0
 25 26  1  0
 27 28  1  0
  7 18  2  0
 18 17  1  0
 17 16  2  0
 16 15  1  0
 15 14  2  0
 14  7  1  0
M  END

$$$$
No_106-gen_results_new/Mpro_initial_molecule_p3/2024-06-19-20-31-25/
     RDKit          3D

 28 30  0  0  0  0  0  0  0  0999 V2000
  -10.3383   15.1532   67.5971 C   0  0  0  0  0  0  0  0  0  0  0  0
  -10.7220   15.1619   68.8301 N   0  0  0  0  0  0  0  0  0  0  0  0
  -10.4044   16.2024   69.6852 N   0  0  0  0  0  0  0  0  0  0  0  0
   -9.7271   17.3221   69.2607 C   0  0  0  0  0  0  0  0  0  0  0  0
   -9.3095   17.3212   67.9557 N   0  0  0  0  0  0  0  0  0  0  0  0
   -9.5450   16.2958   67.0814 C   0  0  0  0  0  0  0  0  0  0  0  0
  -10.8644   16.0907   71.0374 C   0  0  0  0  0  0  0  0  0  0  0  0
   -8.5330   18.4792   67.4604 C   0  0  0  0  0  0  0  0  0  0  0  0
   -9.5433   18.2987   69.9938 O   0  0  0  0  0  0  0  0  0  0  0  0
   -9.1481   16.2876   65.9124 O   0  0  0  0  0  0  0  0  0  0  0  0
  -10.7304   14.0247   66.8209 C   0  0  0  0  0  0  0  0  0  0  0  0
  -11.1003   13.0895   66.2465 N   0  0  0  0  0  0  0  0  0  0  0  0
   -7.0275   18.2876   67.7219 C   0  0  0  0  0  0  0  0  0  0  0  0
  -10.0126   16.3511   72.1395 C   0  0  0  0  0  0  0  0  0  0  0  0
  -10.4883   16.2212   73.4591 C   0  0  0  0  0  0  0  0  0  0  0  0
  -11.8103   15.8022   73.6966 C   0  0  0  0  0  0  0  0  0  0  0  0
  -12.6594   15.5153   72.6113 C   0  0  0  0  0  0  0  0  0  0  0  0
  -12.1896   15.6561   71.2886 C   0  0  0  0  0  0  0  0  0  0  0  0
  -12.2484   15.6088   75.0145 O   0  0  0  0  0  0  0  0  0  0  0  0
   -6.5341   17.3731   68.3686 C   0  0  0  0  0  0  0  0  0  0  0  0
   -5.1247   17.1828   68.5818 C   0  0  0  0  0  0  0  0  0  0  0  0
   -4.4393   18.0516   67.8375 C   0  0  0  0  0  0  0  0  0  0  0  0
   -4.8689   19.0477   67.0691 C   0  0  0  0  0  0  0  0  0  0  0  0
   -6.2627   19.1642   66.9258 C   0  0  0  0  0  0  0  0  0  0  0  0
  -12.3371   16.7920   75.7212 C   0  0  0  0  0  0  0  0  0  0  0  0
  -13.9744   14.9540   72.7919 O   0  0  0  0  0  0  0  0  0  0  0  0
   -3.9999   19.9993   66.3269 C   0  0  0  0  0  0  0  0  0  0  0  0
   -3.9170   19.9776   65.0293 C   0  0  0  0  0  0  0  0  0  0  0  0
  1  2  2  0
  1  6  1  0
  1 11  1  0
  2  3  1  0
  3  4  1  0
  3  7  1  0
  4  9  2  0
  4  5  1  0
  5  6  1  0
  5  8  1  0
  6 10  2  0
  8 13  1  0
 11 12  3  0
 16 19  1  0
 19 25  1  0
 17 26  1  0
 23 27  1  0
 27 28  1  0
 13 20  2  0
 20 21  1  0
 21 22  2  0
 22 23  1  0
 23 24  2  0
 24 13  1  0
  7 18  2  0
 18 17  1  0
 17 16  2  0
 16 15  1  0
 15 14  2  0
 14  7  1  0
M  END

$$$$
No_107-gen_results_new/Mpro_initial_molecule_p3/2024-06-19-20-31-25/
     RDKit          3D

 28 30  0  0  0  0  0  0  0  0999 V2000
  -10.3383   15.1532   67.5971 C   0  0  0  0  0  0  0  0  0  0  0  0
  -10.7220   15.1619   68.8301 N   0  0  0  0  0  0  0  0  0  0  0  0
  -10.4044   16.2024   69.6852 N   0  0  0  0  0  0  0  0  0  0  0  0
   -9.7271   17.3221   69.2607 C   0  0  0  0  0  0  0  0  0  0  0  0
   -9.3095   17.3212   67.9557 N   0  0  0  0  0  0  0  0  0  0  0  0
   -9.5450   16.2958   67.0814 C   0  0  0  0  0  0  0  0  0  0  0  0
  -10.8644   16.0907   71.0374 C   0  0  0  0  0  0  0  0  0  0  0  0
   -8.5330   18.4792   67.4604 C   0  0  0  0  0  0  0  0  0  0  0  0
   -9.5433   18.2987   69.9938 O   0  0  0  0  0  0  0  0  0  0  0  0
   -9.1481   16.2876   65.9124 O   0  0  0  0  0  0  0  0  0  0  0  0
  -10.7304   14.0247   66.8209 C   0  0  0  0  0  0  0  0  0  0  0  0
  -11.1003   13.0895   66.2465 N   0  0  0  0  0  0  0  0  0  0  0  0
   -7.0275   18.2876   67.7219 C   0  0  0  0  0  0  0  0  0  0  0  0
  -10.0126   16.3511   72.1395 C   0  0  0  0  0  0  0  0  0  0  0  0
  -10.4883   16.2212   73.4591 C   0  0  0  0  0  0  0  0  0  0  0  0
  -11.8103   15.8022   73.6966 C   0  0  0  0  0  0  0  0  0  0  0  0
  -12.6594   15.5153   72.6113 C   0  0  0  0  0  0  0  0  0  0  0  0
  -12.1896   15.6561   71.2886 C   0  0  0  0  0  0  0  0  0  0  0  0
  -12.2768   15.6000   75.1088 C   0  0  0  0  0  0  0  0  0  0  0  0
   -6.5341   17.3729   68.3685 C   0  0  0  0  0  0  0  0  0  0  0  0
   -5.1308   17.1882   68.5568 C   0  0  0  0  0  0  0  0  0  0  0  0
   -6.2282   19.1886   66.9092 C   0  0  0  0  0  0  0  0  0  0  0  0
   -4.8273   19.0035   67.0391 C   0  0  0  0  0  0  0  0  0  0  0  0
   -4.3060   18.0195   67.7979 C   0  0  0  0  0  0  0  0  0  0  0  0
  -12.3528   14.5927   75.5997 O   0  0  0  0  0  0  0  0  0  0  0  0
  -12.4213   16.7487   75.8003 N   0  0  0  0  0  0  0  0  0  0  0  0
   -6.3768   20.2440   66.2740 F   0  0  0  0  0  0  0  0  0  0  0  0
   -4.6908   16.0676   69.2722 F   0  0  0  0  0  0  0  0  0  0  0  0
  1  2  2  0
  1  6  1  0
  1 11  1  0
  2  3  1  0
  3  4  1  0
  3  7  1  0
  4  9  2  0
  4  5  1  0
  5  6  1  0
  5  8  1  0
  6 10  2  0
  8 13  1  0
 11 12  3  0
 16 19  1  0
 19 25  2  0
 19 26  1  0
 22 27  1  0
 21 28  1  0
 13 20  2  0
 20 21  1  0
 21 24  2  0
 24 23  1  0
 23 22  2  0
 22 13  1  0
  7 18  2  0
 18 17  1  0
 17 16  2  0
 16 15  1  0
 15 14  2  0
 14  7  1  0
M  END

$$$$
No_108-gen_results_new/Mpro_initial_molecule_p3/2024-06-19-20-31-25/
     RDKit          3D

 28 30  0  0  0  0  0  0  0  0999 V2000
  -10.3383   15.1532   67.5971 C   0  0  0  0  0  0  0  0  0  0  0  0
  -10.7220   15.1619   68.8301 N   0  0  0  0  0  0  0  0  0  0  0  0
  -10.4044   16.2024   69.6852 N   0  0  0  0  0  0  0  0  0  0  0  0
   -9.7271   17.3221   69.2607 C   0  0  0  0  0  0  0  0  0  0  0  0
   -9.3095   17.3212   67.9557 N   0  0  0  0  0  0  0  0  0  0  0  0
   -9.5450   16.2958   67.0814 C   0  0  0  0  0  0  0  0  0  0  0  0
  -10.8644   16.0907   71.0374 C   0  0  0  0  0  0  0  0  0  0  0  0
   -8.5330   18.4792   67.4604 C   0  0  0  0  0  0  0  0  0  0  0  0
   -9.5433   18.2987   69.9938 O   0  0  0  0  0  0  0  0  0  0  0  0
   -9.1481   16.2876   65.9124 O   0  0  0  0  0  0  0  0  0  0  0  0
  -10.7304   14.0247   66.8209 C   0  0  0  0  0  0  0  0  0  0  0  0
  -11.1003   13.0895   66.2465 N   0  0  0  0  0  0  0  0  0  0  0  0
   -7.0275   18.2876   67.7219 C   0  0  0  0  0  0  0  0  0  0  0  0
  -10.0126   16.3511   72.1395 C   0  0  0  0  0  0  0  0  0  0  0  0
  -10.4883   16.2212   73.4591 C   0  0  0  0  0  0  0  0  0  0  0  0
  -11.8103   15.8022   73.6966 C   0  0  0  0  0  0  0  0  0  0  0  0
  -12.6594   15.5153   72.6113 C   0  0  0  0  0  0  0  0  0  0  0  0
  -12.1896   15.6561   71.2886 C   0  0  0  0  0  0  0  0  0  0  0  0
  -12.2484   15.6088   75.0145 O   0  0  0  0  0  0  0  0  0  0  0  0
   -6.4522   19.3083   67.8828 C   0  0  0  0  0  0  0  0  0  0  0  0
   -6.2559   20.3852   67.0148 C   0  0  0  0  0  0  0  0  0  0  0  0
   -6.3494   20.0753   65.8006 C   0  0  0  0  0  0  0  0  0  0  0  0
   -5.5684   20.6292   64.6883 C   0  0  0  0  0  0  0  0  0  0  0  0
   -5.0076   21.8475   64.9198 C   0  0  0  0  0  0  0  0  0  0  0  0
   -4.7987   22.2158   66.2727 C   0  0  0  0  0  0  0  0  0  0  0  0
   -3.8426   23.5923   66.5391 Cl  0  0  0  0  0  0  0  0  0  0  0  0
   -5.2413   21.4179   67.2697 C   0  0  0  0  0  0  0  0  0  0  0  0
  -11.8478   14.7428   75.7204 C   0  0  0  0  0  0  0  0  0  0  0  0
  1  2  2  0
  1  6  1  0
  1 11  1  0
  2  3  1  0
  3  4  1  0
  3  7  1  0
  4  9  2  0
  4  5  1  0
  5  6  1  0
  5  8  1  0
  6 10  2  0
  8 13  1  0
 11 12  3  0
 16 19  1  0
 13 20  1  0
 20 21  1  0
 25 26  1  0
 19 28  1  0
 21 22  2  0
 22 23  1  0
 23 24  2  0
 24 25  1  0
 25 27  2  0
 27 21  1  0
  7 18  2  0
 18 17  1  0
 17 16  2  0
 16 15  1  0
 15 14  2  0
 14  7  1  0
M  END

$$$$
No_109-gen_results_new/Mpro_initial_molecule_p3/2024-06-19-20-31-25/
     RDKit          3D

 28 30  0  0  0  0  0  0  0  0999 V2000
  -10.3383   15.1532   67.5971 C   0  0  0  0  0  0  0  0  0  0  0  0
  -10.7220   15.1619   68.8301 N   0  0  0  0  0  0  0  0  0  0  0  0
  -10.4044   16.2024   69.6852 N   0  0  0  0  0  0  0  0  0  0  0  0
   -9.7271   17.3221   69.2607 C   0  0  0  0  0  0  0  0  0  0  0  0
   -9.3095   17.3212   67.9557 N   0  0  0  0  0  0  0  0  0  0  0  0
   -9.5450   16.2958   67.0814 C   0  0  0  0  0  0  0  0  0  0  0  0
  -10.8644   16.0907   71.0374 C   0  0  0  0  0  0  0  0  0  0  0  0
   -8.5330   18.4792   67.4604 C   0  0  0  0  0  0  0  0  0  0  0  0
   -9.5433   18.2987   69.9938 O   0  0  0  0  0  0  0  0  0  0  0  0
   -9.1481   16.2876   65.9124 O   0  0  0  0  0  0  0  0  0  0  0  0
  -10.7304   14.0247   66.8209 C   0  0  0  0  0  0  0  0  0  0  0  0
  -11.1003   13.0895   66.2465 N   0  0  0  0  0  0  0  0  0  0  0  0
   -7.0275   18.2876   67.7219 C   0  0  0  0  0  0  0  0  0  0  0  0
  -10.0126   16.3511   72.1395 C   0  0  0  0  0  0  0  0  0  0  0  0
  -10.4883   16.2212   73.4591 C   0  0  0  0  0  0  0  0  0  0  0  0
  -11.8103   15.8022   73.6966 C   0  0  0  0  0  0  0  0  0  0  0  0
  -12.6594   15.5153   72.6113 C   0  0  0  0  0  0  0  0  0  0  0  0
  -12.1896   15.6561   71.2886 C   0  0  0  0  0  0  0  0  0  0  0  0
  -12.2768   15.6000   75.1088 C   0  0  0  0  0  0  0  0  0  0  0  0
   -6.4859   19.1440   67.9007 N   0  0  0  0  0  0  0  0  0  0  0  0
  -12.5810   16.5954   75.6954 O   0  0  0  0  0  0  0  0  0  0  0  0
  -12.1194   14.5204   75.6004 O   0  0  0  0  0  0  0  0  0  0  0  0
   -5.0849   19.0468   67.7899 C   0  0  0  0  0  0  0  0  0  0  0  0
   -4.6148   17.7842   67.2478 C   0  0  0  0  0  0  0  0  0  0  0  0
   -3.2363   17.5093   66.9781 C   0  0  0  0  0  0  0  0  0  0  0  0
   -2.4172   18.5210   67.1397 C   0  0  0  0  0  0  0  0  0  0  0  0
   -4.0726   19.9606   67.9417 C   0  0  0  0  0  0  0  0  0  0  0  0
   -2.7351   19.7831   67.6379 C   0  0  0  0  0  0  0  0  0  0  0  0
  1  2  2  0
  1  6  1  0
  1 11  1  0
  2  3  1  0
  3  4  1  0
  3  7  1  0
  4  9  2  0
  4  5  1  0
  5  6  1  0
  5  8  1  0
  6 10  2  0
  8 13  1  0
 11 12  3  0
 16 19  1  0
 13 20  1  0
 19 21  2  0
 19 22  1  0
 20 23  1  0
 23 24  2  0
 24 25  1  0
 25 26  2  0
 26 28  1  0
 28 27  2  0
 27 23  1  0
  7 18  2  0
 18 17  1  0
 17 16  2  0
 16 15  1  0
 15 14  2  0
 14  7  1  0
M  END

$$$$
No_110-gen_results_new/Mpro_initial_molecule_p3/2024-06-19-20-31-25/
     RDKit          3D

 28 30  0  0  0  0  0  0  0  0999 V2000
  -10.3383   15.1532   67.5971 C   0  0  0  0  0  0  0  0  0  0  0  0
  -10.7220   15.1619   68.8301 N   0  0  0  0  0  0  0  0  0  0  0  0
  -10.4044   16.2024   69.6852 N   0  0  0  0  0  0  0  0  0  0  0  0
   -9.7271   17.3221   69.2607 C   0  0  0  0  0  0  0  0  0  0  0  0
   -9.3095   17.3212   67.9557 N   0  0  0  0  0  0  0  0  0  0  0  0
   -9.5450   16.2958   67.0814 C   0  0  0  0  0  0  0  0  0  0  0  0
  -10.8644   16.0907   71.0374 C   0  0  0  0  0  0  0  0  0  0  0  0
   -8.5330   18.4792   67.4604 C   0  0  0  0  0  0  0  0  0  0  0  0
   -9.5433   18.2987   69.9938 O   0  0  0  0  0  0  0  0  0  0  0  0
   -9.1481   16.2876   65.9124 O   0  0  0  0  0  0  0  0  0  0  0  0
  -10.7304   14.0247   66.8209 C   0  0  0  0  0  0  0  0  0  0  0  0
  -11.1003   13.0895   66.2465 N   0  0  0  0  0  0  0  0  0  0  0  0
   -7.0275   18.2876   67.7219 C   0  0  0  0  0  0  0  0  0  0  0  0
  -10.0126   16.3511   72.1395 C   0  0  0  0  0  0  0  0  0  0  0  0
  -10.4883   16.2212   73.4591 C   0  0  0  0  0  0  0  0  0  0  0  0
  -11.8103   15.8022   73.6966 C   0  0  0  0  0  0  0  0  0  0  0  0
  -12.6594   15.5153   72.6113 C   0  0  0  0  0  0  0  0  0  0  0  0
  -12.1896   15.6561   71.2886 C   0  0  0  0  0  0  0  0  0  0  0  0
  -12.2768   15.6000   75.1088 C   0  0  0  0  0  0  0  0  0  0  0  0
   -6.5341   17.3729   68.3685 C   0  0  0  0  0  0  0  0  0  0  0  0
   -5.1308   17.1882   68.5568 C   0  0  0  0  0  0  0  0  0  0  0  0
   -6.3132   19.4047   67.2946 C   0  0  0  0  0  0  0  0  0  0  0  0
   -4.9040   19.2890   67.4766 C   0  0  0  0  0  0  0  0  0  0  0  0
   -4.1456   20.4427   67.0082 C   0  0  0  0  0  0  0  0  0  0  0  0
   -4.3511   18.2006   68.0681 C   0  0  0  0  0  0  0  0  0  0  0  0
   -2.7979   20.3619   67.2114 C   0  0  0  0  0  0  0  0  0  0  0  0
  -12.3510   14.5927   75.6001 O   0  0  0  0  0  0  0  0  0  0  0  0
  -12.8115   16.6659   75.6553 O   0  0  0  0  0  0  0  0  0  0  0  0
  1  2  2  0
  1  6  1  0
  1 11  1  0
  2  3  1  0
  3  4  1  0
  3  7  1  0
  4  9  2  0
  4  5  1  0
  5  6  1  0
  5  8  1  0
  6 10  2  0
  8 13  1  0
 11 12  3  0
 16 19  1  0
 23 24  1  0
 24 26  2  0
 19 27  2  0
 19 28  1  0
 13 20  2  0
 20 21  1  0
 21 25  2  0
 25 23  1  0
 23 22  2  0
 22 13  1  0
  7 18  2  0
 18 17  1  0
 17 16  2  0
 16 15  1  0
 15 14  2  0
 14  7  1  0
M  END

$$$$
No_111-gen_results_new/Mpro_initial_molecule_p3/2024-06-19-20-31-25/
     RDKit          3D

 28 30  0  0  0  0  0  0  0  0999 V2000
  -10.3383   15.1532   67.5971 C   0  0  0  0  0  0  0  0  0  0  0  0
  -10.7220   15.1619   68.8301 N   0  0  0  0  0  0  0  0  0  0  0  0
  -10.4044   16.2024   69.6852 N   0  0  0  0  0  0  0  0  0  0  0  0
   -9.7271   17.3221   69.2607 C   0  0  0  0  0  0  0  0  0  0  0  0
   -9.3095   17.3212   67.9557 N   0  0  0  0  0  0  0  0  0  0  0  0
   -9.5450   16.2958   67.0814 C   0  0  0  0  0  0  0  0  0  0  0  0
  -10.8644   16.0907   71.0374 C   0  0  0  0  0  0  0  0  0  0  0  0
   -8.5330   18.4792   67.4604 C   0  0  0  0  0  0  0  0  0  0  0  0
   -9.5433   18.2987   69.9938 O   0  0  0  0  0  0  0  0  0  0  0  0
   -9.1481   16.2876   65.9124 O   0  0  0  0  0  0  0  0  0  0  0  0
  -10.7304   14.0247   66.8209 C   0  0  0  0  0  0  0  0  0  0  0  0
  -11.1003   13.0895   66.2465 N   0  0  0  0  0  0  0  0  0  0  0  0
   -7.0275   18.2876   67.7219 C   0  0  0  0  0  0  0  0  0  0  0  0
  -10.0126   16.3511   72.1395 C   0  0  0  0  0  0  0  0  0  0  0  0
  -10.4883   16.2212   73.4591 C   0  0  0  0  0  0  0  0  0  0  0  0
  -11.8103   15.8022   73.6966 C   0  0  0  0  0  0  0  0  0  0  0  0
  -12.6594   15.5153   72.6113 C   0  0  0  0  0  0  0  0  0  0  0  0
  -12.1896   15.6561   71.2886 C   0  0  0  0  0  0  0  0  0  0  0  0
  -12.2768   15.6000   75.1088 C   0  0  0  0  0  0  0  0  0  0  0  0
   -6.5341   17.3729   68.3685 C   0  0  0  0  0  0  0  0  0  0  0  0
   -5.1249   17.1827   68.5818 C   0  0  0  0  0  0  0  0  0  0  0  0
   -4.2977   17.9486   67.7745 C   0  0  0  0  0  0  0  0  0  0  0  0
   -4.9516   18.8746   67.0324 C   0  0  0  0  0  0  0  0  0  0  0  0
   -6.2501   19.0634   66.8457 C   0  0  0  0  0  0  0  0  0  0  0  0
  -12.3528   14.5928   75.5997 O   0  0  0  0  0  0  0  0  0  0  0  0
  -12.4569   16.7015   75.7580 O   0  0  0  0  0  0  0  0  0  0  0  0
  -14.3083   14.8830   72.8484 Cl  0  0  0  0  0  0  0  0  0  0  0  0
   -4.0609   19.7106   66.1636 O   0  0  0  0  0  0  0  0  0  0  0  0
  1  2  2  0
  1  6  1  0
  1 11  1  0
  2  3  1  0
  3  4  1  0
  3  7  1  0
  4  9  2  0
  4  5  1  0
  5  6  1  0
  5  8  1  0
  6 10  2  0
  8 13  1  0
 11 12  3  0
 16 19  1  0
 19 25  2  0
 19 26  1  0
 17 27  1  0
 23 28  1  0
 13 20  2  0
 20 21  1  0
 21 22  2  0
 22 23  1  0
 23 24  2  0
 24 13  1  0
  7 18  2  0
 18 17  1  0
 17 16  2  0
 16 15  1  0
 15 14  2  0
 14  7  1  0
M  END

$$$$
No_112-gen_results_new/Mpro_initial_molecule_p3/2024-06-19-20-31-25/
     RDKit          3D

 28 30  0  0  0  0  0  0  0  0999 V2000
  -10.3383   15.1532   67.5971 C   0  0  0  0  0  0  0  0  0  0  0  0
  -10.7220   15.1619   68.8301 N   0  0  0  0  0  0  0  0  0  0  0  0
  -10.4044   16.2024   69.6852 N   0  0  0  0  0  0  0  0  0  0  0  0
   -9.7271   17.3221   69.2607 C   0  0  0  0  0  0  0  0  0  0  0  0
   -9.3095   17.3212   67.9557 N   0  0  0  0  0  0  0  0  0  0  0  0
   -9.5450   16.2958   67.0814 C   0  0  0  0  0  0  0  0  0  0  0  0
  -10.8644   16.0907   71.0374 C   0  0  0  0  0  0  0  0  0  0  0  0
   -8.5330   18.4792   67.4604 C   0  0  0  0  0  0  0  0  0  0  0  0
   -9.5433   18.2987   69.9938 O   0  0  0  0  0  0  0  0  0  0  0  0
   -9.1481   16.2876   65.9124 O   0  0  0  0  0  0  0  0  0  0  0  0
  -10.7304   14.0247   66.8209 C   0  0  0  0  0  0  0  0  0  0  0  0
  -11.1003   13.0895   66.2465 N   0  0  0  0  0  0  0  0  0  0  0  0
   -7.0275   18.2876   67.7219 C   0  0  0  0  0  0  0  0  0  0  0  0
  -10.0126   16.3511   72.1395 C   0  0  0  0  0  0  0  0  0  0  0  0
  -10.4883   16.2212   73.4591 C   0  0  0  0  0  0  0  0  0  0  0  0
  -11.8103   15.8022   73.6966 C   0  0  0  0  0  0  0  0  0  0  0  0
  -12.6594   15.5153   72.6113 C   0  0  0  0  0  0  0  0  0  0  0  0
  -12.1896   15.6561   71.2886 C   0  0  0  0  0  0  0  0  0  0  0  0
  -12.2768   15.6000   75.1088 C   0  0  0  0  0  0  0  0  0  0  0  0
   -6.3059   19.3590   66.9154 C   0  0  0  0  0  0  0  0  0  0  0  0
   -4.9259   19.3482   66.9559 C   0  0  0  0  0  0  0  0  0  0  0  0
   -4.2806   18.1589   67.5992 C   0  0  0  0  0  0  0  0  0  0  0  0
   -5.0624   17.1663   68.2345 C   0  0  0  0  0  0  0  0  0  0  0  0
   -6.4891   17.1761   68.1404 C   0  0  0  0  0  0  0  0  0  0  0  0
  -12.3521   14.5925   75.5998 O   0  0  0  0  0  0  0  0  0  0  0  0
  -12.2008   16.7297   75.8911 N   0  0  0  0  0  0  0  0  0  0  0  0
   -4.1307   20.3207   66.3585 C   0  0  0  0  0  0  0  0  0  0  0  0
   -2.7741   20.2611   66.5349 C   0  0  0  0  0  0  0  0  0  0  0  0
  1  2  2  0
  1  6  1  0
  1 11  1  0
  2  3  1  0
  3  4  1  0
  3  7  1  0
  4  9  2  0
  4  5  1  0
  5  6  1  0
  5  8  1  0
  6 10  2  0
  8 13  1  0
 11 12  3  0
 16 19  1  0
 19 25  2  0
 19 26  1  0
 21 27  1  0
 27 28  2  0
 13 20  2  0
 20 21  1  0
 21 22  2  0
 22 23  1  0
 23 24  2  0
 24 13  1  0
  7 18  2  0
 18 17  1  0
 17 16  2  0
 16 15  1  0
 15 14  2  0
 14  7  1  0
M  END

$$$$
No_113-gen_results_new/Mpro_initial_molecule_p3/2024-06-19-20-31-25/
     RDKit          3D

 28 30  0  0  0  0  0  0  0  0999 V2000
  -10.3383   15.1532   67.5971 C   0  0  0  0  0  0  0  0  0  0  0  0
  -10.7220   15.1619   68.8301 N   0  0  0  0  0  0  0  0  0  0  0  0
  -10.4044   16.2024   69.6852 N   0  0  0  0  0  0  0  0  0  0  0  0
   -9.7271   17.3221   69.2607 C   0  0  0  0  0  0  0  0  0  0  0  0
   -9.3095   17.3212   67.9557 N   0  0  0  0  0  0  0  0  0  0  0  0
   -9.5450   16.2958   67.0814 C   0  0  0  0  0  0  0  0  0  0  0  0
  -10.8644   16.0907   71.0374 C   0  0  0  0  0  0  0  0  0  0  0  0
   -8.5330   18.4792   67.4604 C   0  0  0  0  0  0  0  0  0  0  0  0
   -9.5433   18.2987   69.9938 O   0  0  0  0  0  0  0  0  0  0  0  0
   -9.1481   16.2876   65.9124 O   0  0  0  0  0  0  0  0  0  0  0  0
  -10.7304   14.0247   66.8209 C   0  0  0  0  0  0  0  0  0  0  0  0
  -11.1003   13.0895   66.2465 N   0  0  0  0  0  0  0  0  0  0  0  0
   -7.0275   18.2876   67.7219 C   0  0  0  0  0  0  0  0  0  0  0  0
  -10.0126   16.3511   72.1395 C   0  0  0  0  0  0  0  0  0  0  0  0
  -10.4883   16.2212   73.4591 C   0  0  0  0  0  0  0  0  0  0  0  0
  -11.8103   15.8022   73.6966 C   0  0  0  0  0  0  0  0  0  0  0  0
  -12.6594   15.5153   72.6113 C   0  0  0  0  0  0  0  0  0  0  0  0
  -12.1896   15.6561   71.2886 C   0  0  0  0  0  0  0  0  0  0  0  0
  -12.2768   15.6000   75.1088 C   0  0  0  0  0  0  0  0  0  0  0  0
   -6.5341   17.3729   68.3685 C   0  0  0  0  0  0  0  0  0  0  0  0
   -5.1249   17.1827   68.5818 C   0  0  0  0  0  0  0  0  0  0  0  0
   -4.2977   17.9486   67.7745 C   0  0  0  0  0  0  0  0  0  0  0  0
   -2.6983   17.7545   67.8079 Cl  0  0  0  0  0  0  0  0  0  0  0  0
   -6.1627   19.0814   66.9620 C   0  0  0  0  0  0  0  0  0  0  0  0
   -4.8224   18.9660   67.0000 C   0  0  0  0  0  0  0  0  0  0  0  0
  -12.3528   14.5926   75.5996 O   0  0  0  0  0  0  0  0  0  0  0  0
  -12.2002   16.7297   75.8913 N   0  0  0  0  0  0  0  0  0  0  0  0
  -13.9701   15.0079   72.8432 O   0  0  0  0  0  0  0  0  0  0  0  0
  1  2  2  0
  1  6  1  0
  1 11  1  0
  2  3  1  0
  3  4  1  0
  3  7  1  0
  4  9  2  0
  4  5  1  0
  5  6  1  0
  5  8  1  0
  6 10  2  0
  8 13  1  0
 11 12  3  0
 16 19  1  0
 22 23  1  0
 19 26  2  0
 19 27  1  0
 17 28  1  0
 13 20  2  0
 20 21  1  0
 21 22  2  0
 22 25  1  0
 25 24  2  0
 24 13  1  0
  7 18  2  0
 18 17  1  0
 17 16  2  0
 16 15  1  0
 15 14  2  0
 14  7  1  0
M  END

$$$$
No_114-gen_results_new/Mpro_initial_molecule_p3/2024-06-19-20-31-25/
     RDKit          3D

 26 28  0  0  0  0  0  0  0  0999 V2000
  -10.3383   15.1532   67.5971 C   0  0  0  0  0  0  0  0  0  0  0  0
  -10.7220   15.1619   68.8301 N   0  0  0  0  0  0  0  0  0  0  0  0
  -10.4044   16.2024   69.6852 N   0  0  0  0  0  0  0  0  0  0  0  0
   -9.7271   17.3221   69.2607 C   0  0  0  0  0  0  0  0  0  0  0  0
   -9.3095   17.3212   67.9557 N   0  0  0  0  0  0  0  0  0  0  0  0
   -9.5450   16.2958   67.0814 C   0  0  0  0  0  0  0  0  0  0  0  0
  -10.8644   16.0907   71.0374 C   0  0  0  0  0  0  0  0  0  0  0  0
   -8.5330   18.4792   67.4604 C   0  0  0  0  0  0  0  0  0  0  0  0
   -9.5433   18.2987   69.9938 O   0  0  0  0  0  0  0  0  0  0  0  0
   -9.1481   16.2876   65.9124 O   0  0  0  0  0  0  0  0  0  0  0  0
  -10.7304   14.0247   66.8209 C   0  0  0  0  0  0  0  0  0  0  0  0
  -11.1003   13.0895   66.2465 N   0  0  0  0  0  0  0  0  0  0  0  0
   -7.0275   18.2876   67.7219 C   0  0  0  0  0  0  0  0  0  0  0  0
  -10.0126   16.3511   72.1395 C   0  0  0  0  0  0  0  0  0  0  0  0
  -10.4883   16.2212   73.4591 C   0  0  0  0  0  0  0  0  0  0  0  0
  -11.8103   15.8022   73.6966 C   0  0  0  0  0  0  0  0  0  0  0  0
  -12.6594   15.5153   72.6113 C   0  0  0  0  0  0  0  0  0  0  0  0
  -12.1896   15.6561   71.2886 C   0  0  0  0  0  0  0  0  0  0  0  0
  -12.3486   15.5799   75.3255 Cl  0  0  0  0  0  0  0  0  0  0  0  0
   -6.3058   19.3592   66.9157 C   0  0  0  0  0  0  0  0  0  0  0  0
   -4.9894   19.4432   66.9687 C   0  0  0  0  0  0  0  0  0  0  0  0
   -4.2950   18.3074   67.6829 C   0  0  0  0  0  0  0  0  0  0  0  0
   -2.9420   18.1746   67.6882 C   0  0  0  0  0  0  0  0  0  0  0  0
   -2.1838   19.2153   67.1257 C   0  0  0  0  0  0  0  0  0  0  0  0
   -2.7644   20.3041   66.5691 C   0  0  0  0  0  0  0  0  0  0  0  0
   -4.1688   20.4044   66.4824 C   0  0  0  0  0  0  0  0  0  0  0  0
  1  2  2  0
  1  6  1  0
  1 11  1  0
  2  3  1  0
  3  4  1  0
  3  7  1  0
  4  9  2  0
  4  5  1  0
  5  6  1  0
  5  8  1  0
  6 10  2  0
  8 13  1  0
 11 12  3  0
 16 19  1  0
 13 20  1  0
 20 21  1  0
  7 18  2  0
 18 17  1  0
 17 16  2  0
 16 15  1  0
 15 14  2  0
 14  7  1  0
 21 22  2  0
 22 23  1  0
 23 24  2  0
 24 25  1  0
 25 26  2  0
 26 21  1  0
M  END

$$$$
No_115-gen_results_new/Mpro_initial_molecule_p3/2024-06-19-20-31-25/
     RDKit          3D

 28 30  0  0  0  0  0  0  0  0999 V2000
  -10.3383   15.1532   67.5971 C   0  0  0  0  0  0  0  0  0  0  0  0
  -10.7220   15.1619   68.8301 N   0  0  0  0  0  0  0  0  0  0  0  0
  -10.4044   16.2024   69.6852 N   0  0  0  0  0  0  0  0  0  0  0  0
   -9.7271   17.3221   69.2607 C   0  0  0  0  0  0  0  0  0  0  0  0
   -9.3095   17.3212   67.9557 N   0  0  0  0  0  0  0  0  0  0  0  0
   -9.5450   16.2958   67.0814 C   0  0  0  0  0  0  0  0  0  0  0  0
  -10.8644   16.0907   71.0374 C   0  0  0  0  0  0  0  0  0  0  0  0
   -8.5330   18.4792   67.4604 C   0  0  0  0  0  0  0  0  0  0  0  0
   -9.5433   18.2987   69.9938 O   0  0  0  0  0  0  0  0  0  0  0  0
   -9.1481   16.2876   65.9124 O   0  0  0  0  0  0  0  0  0  0  0  0
  -10.7304   14.0247   66.8209 C   0  0  0  0  0  0  0  0  0  0  0  0
  -11.1003   13.0895   66.2465 N   0  0  0  0  0  0  0  0  0  0  0  0
   -7.0275   18.2876   67.7219 C   0  0  0  0  0  0  0  0  0  0  0  0
  -10.0126   16.3511   72.1395 C   0  0  0  0  0  0  0  0  0  0  0  0
  -10.4883   16.2212   73.4591 C   0  0  0  0  0  0  0  0  0  0  0  0
  -11.8103   15.8022   73.6966 C   0  0  0  0  0  0  0  0  0  0  0  0
  -12.6594   15.5153   72.6113 C   0  0  0  0  0  0  0  0  0  0  0  0
  -12.1896   15.6561   71.2886 C   0  0  0  0  0  0  0  0  0  0  0  0
  -12.2768   15.6000   75.1088 C   0  0  0  0  0  0  0  0  0  0  0  0
   -6.4522   19.3092   67.8826 C   0  0  0  0  0  0  0  0  0  0  0  0
  -12.3537   14.5923   75.5994 O   0  0  0  0  0  0  0  0  0  0  0  0
  -12.4205   16.7483   75.8013 N   0  0  0  0  0  0  0  0  0  0  0  0
   -6.3700   20.4051   67.0253 C   0  0  0  0  0  0  0  0  0  0  0  0
   -5.2154   21.2045   66.8529 C   0  0  0  0  0  0  0  0  0  0  0  0
   -4.2849   21.1382   67.9162 C   0  0  0  0  0  0  0  0  0  0  0  0
   -4.2362   19.9878   68.8372 C   0  0  0  0  0  0  0  0  0  0  0  0
   -5.2976   19.1124   68.8563 C   0  0  0  0  0  0  0  0  0  0  0  0
   -3.2261   19.9375   69.8076 O   0  0  0  0  0  0  0  0  0  0  0  0
  1  2  2  0
  1  6  1  0
  1 11  1  0
  2  3  1  0
  3  4  1  0
  3  7  1  0
  4  9  2  0
  4  5  1  0
  5  6  1  0
  5  8  1  0
  6 10  2  0
  8 13  1  0
 11 12  3  0
 16 19  1  0
 13 20  1  0
 19 21  2  0
 19 22  1  0
 26 28  1  0
 20 23  2  0
 23 24  1  0
 24 25  2  0
 25 26  1  0
 26 27  2  0
 27 20  1  0
  7 18  2  0
 18 17  1  0
 17 16  2  0
 16 15  1  0
 15 14  2  0
 14  7  1  0
M  END

$$$$
No_116-gen_results_new/Mpro_initial_molecule_p3/2024-06-19-20-31-25/
     RDKit          3D

 28 30  0  0  0  0  0  0  0  0999 V2000
  -10.3383   15.1532   67.5971 C   0  0  0  0  0  0  0  0  0  0  0  0
  -10.7220   15.1619   68.8301 N   0  0  0  0  0  0  0  0  0  0  0  0
  -10.4044   16.2024   69.6852 N   0  0  0  0  0  0  0  0  0  0  0  0
   -9.7271   17.3221   69.2607 C   0  0  0  0  0  0  0  0  0  0  0  0
   -9.3095   17.3212   67.9557 N   0  0  0  0  0  0  0  0  0  0  0  0
   -9.5450   16.2958   67.0814 C   0  0  0  0  0  0  0  0  0  0  0  0
  -10.8644   16.0907   71.0374 C   0  0  0  0  0  0  0  0  0  0  0  0
   -8.5330   18.4792   67.4604 C   0  0  0  0  0  0  0  0  0  0  0  0
   -9.5433   18.2987   69.9938 O   0  0  0  0  0  0  0  0  0  0  0  0
   -9.1481   16.2876   65.9124 O   0  0  0  0  0  0  0  0  0  0  0  0
  -10.7304   14.0247   66.8209 C   0  0  0  0  0  0  0  0  0  0  0  0
  -11.1003   13.0895   66.2465 N   0  0  0  0  0  0  0  0  0  0  0  0
   -7.0275   18.2876   67.7219 C   0  0  0  0  0  0  0  0  0  0  0  0
  -10.0126   16.3511   72.1395 C   0  0  0  0  0  0  0  0  0  0  0  0
  -10.4883   16.2212   73.4591 C   0  0  0  0  0  0  0  0  0  0  0  0
  -11.8103   15.8022   73.6966 C   0  0  0  0  0  0  0  0  0  0  0  0
  -12.6594   15.5153   72.6113 C   0  0  0  0  0  0  0  0  0  0  0  0
  -12.1896   15.6561   71.2886 C   0  0  0  0  0  0  0  0  0  0  0  0
  -12.2768   15.6000   75.1088 C   0  0  0  0  0  0  0  0  0  0  0  0
   -6.5341   17.3729   68.3685 C   0  0  0  0  0  0  0  0  0  0  0  0
   -5.1308   17.1882   68.5568 C   0  0  0  0  0  0  0  0  0  0  0  0
   -6.2282   19.1886   66.9092 C   0  0  0  0  0  0  0  0  0  0  0  0
   -4.8273   19.0035   67.0391 C   0  0  0  0  0  0  0  0  0  0  0  0
   -4.3060   18.0195   67.7979 C   0  0  0  0  0  0  0  0  0  0  0  0
  -12.3528   14.5927   75.5997 O   0  0  0  0  0  0  0  0  0  0  0  0
  -12.8087   16.7351   75.7016 N   0  0  0  0  0  0  0  0  0  0  0  0
   -6.8544   20.1872   66.1267 N   0  0  0  0  0  0  0  0  0  0  0  0
   -8.2914   20.2454   66.0160 C   0  0  0  0  0  0  0  0  0  0  0  0
  1  2  2  0
  1  6  1  0
  1 11  1  0
  2  3  1  0
  3  4  1  0
  3  7  1  0
  4  9  2  0
  4  5  1  0
  5  6  1  0
  5  8  1  0
  6 10  2  0
  8 13  1  0
 11 12  3  0
 16 19  1  0
 19 25  2  0
 19 26  1  0
 22 27  1  0
 27 28  1  0
 13 20  2  0
 20 21  1  0
 21 24  2  0
 24 23  1  0
 23 22  2  0
 22 13  1  0
  7 18  2  0
 18 17  1  0
 17 16  2  0
 16 15  1  0
 15 14  2  0
 14  7  1  0
M  END

$$$$
No_117-gen_results_new/Mpro_initial_molecule_p3/2024-06-19-20-31-25/
     RDKit          3D

 28 30  0  0  0  0  0  0  0  0999 V2000
  -10.3383   15.1532   67.5971 C   0  0  0  0  0  0  0  0  0  0  0  0
  -10.7220   15.1619   68.8301 N   0  0  0  0  0  0  0  0  0  0  0  0
  -10.4044   16.2024   69.6852 N   0  0  0  0  0  0  0  0  0  0  0  0
   -9.7271   17.3221   69.2607 C   0  0  0  0  0  0  0  0  0  0  0  0
   -9.3095   17.3212   67.9557 N   0  0  0  0  0  0  0  0  0  0  0  0
   -9.5450   16.2958   67.0814 C   0  0  0  0  0  0  0  0  0  0  0  0
  -10.8644   16.0907   71.0374 C   0  0  0  0  0  0  0  0  0  0  0  0
   -8.5330   18.4792   67.4604 C   0  0  0  0  0  0  0  0  0  0  0  0
   -9.5433   18.2987   69.9938 O   0  0  0  0  0  0  0  0  0  0  0  0
   -9.1481   16.2876   65.9124 O   0  0  0  0  0  0  0  0  0  0  0  0
  -10.7304   14.0247   66.8209 C   0  0  0  0  0  0  0  0  0  0  0  0
  -11.1003   13.0895   66.2465 N   0  0  0  0  0  0  0  0  0  0  0  0
   -7.0275   18.2876   67.7219 C   0  0  0  0  0  0  0  0  0  0  0  0
  -10.0126   16.3511   72.1395 C   0  0  0  0  0  0  0  0  0  0  0  0
  -10.4883   16.2212   73.4591 C   0  0  0  0  0  0  0  0  0  0  0  0
  -11.8103   15.8022   73.6966 C   0  0  0  0  0  0  0  0  0  0  0  0
  -12.6594   15.5153   72.6113 C   0  0  0  0  0  0  0  0  0  0  0  0
  -12.1896   15.6561   71.2886 C   0  0  0  0  0  0  0  0  0  0  0  0
  -12.2484   15.6088   75.0145 O   0  0  0  0  0  0  0  0  0  0  0  0
   -6.5557   17.2016   67.9039 O   0  0  0  0  0  0  0  0  0  0  0  0
   -6.4129   19.3145   68.0693 N   0  0  0  0  0  0  0  0  0  0  0  0
  -11.8807   16.5255   75.9074 C   0  0  0  0  0  0  0  0  0  0  0  0
   -5.0756   19.6809   68.2938 C   0  0  0  0  0  0  0  0  0  0  0  0
   -4.7652   19.6640   69.6561 C   0  0  0  0  0  0  0  0  0  0  0  0
   -3.3663   19.9485   69.9945 C   0  0  0  0  0  0  0  0  0  0  0  0
   -2.4931   20.3117   69.0445 C   0  0  0  0  0  0  0  0  0  0  0  0
   -2.8606   20.2771   67.6676 C   0  0  0  0  0  0  0  0  0  0  0  0
   -4.2048   20.0839   67.3526 C   0  0  0  0  0  0  0  0  0  0  0  0
  1  2  2  0
  1  6  1  0
  1 11  1  0
  2  3  1  0
  3  4  1  0
  3  7  1  0
  4  9  2  0
  4  5  1  0
  5  6  1  0
  5  8  1  0
  6 10  2  0
  8 13  1  0
 11 12  3  0
 16 19  1  0
 13 20  2  0
 13 21  1  0
 19 22  1  0
 21 23  1  0
 23 24  2  0
 24 25  1  0
 25 26  2  0
 26 27  1  0
 27 28  2  0
 28 23  1  0
  7 18  2  0
 18 17  1  0
 17 16  2  0
 16 15  1  0
 15 14  2  0
 14  7  1  0
M  END

$$$$
No_118-gen_results_new/Mpro_initial_molecule_p3/2024-06-19-20-31-25/
     RDKit          3D

 27 29  0  0  0  0  0  0  0  0999 V2000
  -10.3383   15.1532   67.5971 C   0  0  0  0  0  0  0  0  0  0  0  0
  -10.7220   15.1619   68.8301 N   0  0  0  0  0  0  0  0  0  0  0  0
  -10.4044   16.2024   69.6852 N   0  0  0  0  0  0  0  0  0  0  0  0
   -9.7271   17.3221   69.2607 C   0  0  0  0  0  0  0  0  0  0  0  0
   -9.3095   17.3212   67.9557 N   0  0  0  0  0  0  0  0  0  0  0  0
   -9.5450   16.2958   67.0814 C   0  0  0  0  0  0  0  0  0  0  0  0
  -10.8644   16.0907   71.0374 C   0  0  0  0  0  0  0  0  0  0  0  0
   -8.5330   18.4792   67.4604 C   0  0  0  0  0  0  0  0  0  0  0  0
   -9.5433   18.2987   69.9938 O   0  0  0  0  0  0  0  0  0  0  0  0
   -9.1481   16.2876   65.9124 O   0  0  0  0  0  0  0  0  0  0  0  0
  -10.7304   14.0247   66.8209 C   0  0  0  0  0  0  0  0  0  0  0  0
  -11.1003   13.0895   66.2465 N   0  0  0  0  0  0  0  0  0  0  0  0
   -7.0275   18.2876   67.7219 C   0  0  0  0  0  0  0  0  0  0  0  0
  -10.0126   16.3511   72.1395 C   0  0  0  0  0  0  0  0  0  0  0  0
  -10.4883   16.2212   73.4591 C   0  0  0  0  0  0  0  0  0  0  0  0
  -11.8103   15.8022   73.6966 C   0  0  0  0  0  0  0  0  0  0  0  0
  -12.6594   15.5153   72.6113 C   0  0  0  0  0  0  0  0  0  0  0  0
  -12.1896   15.6561   71.2886 C   0  0  0  0  0  0  0  0  0  0  0  0
  -12.2768   15.6000   75.1088 C   0  0  0  0  0  0  0  0  0  0  0  0
   -6.4522   19.3092   67.8826 C   0  0  0  0  0  0  0  0  0  0  0  0
  -12.3537   14.5923   75.5994 O   0  0  0  0  0  0  0  0  0  0  0  0
  -12.4205   16.7483   75.8013 N   0  0  0  0  0  0  0  0  0  0  0  0
   -6.1111   19.5229   69.0693 C   0  0  0  0  0  0  0  0  0  0  0  0
   -5.6463   18.3259   69.7864 C   0  0  0  0  0  0  0  0  0  0  0  0
   -6.2207   17.0567   69.4064 N   0  0  0  0  0  0  0  0  0  0  0  0
   -7.0323   17.0758   68.3866 C   0  0  0  0  0  0  0  0  0  0  0  0
   -6.9206   20.5860   67.1440 C   0  0  0  0  0  0  0  0  0  0  0  0
  1  2  2  0
  1  6  1  0
  1 11  1  0
  2  3  1  0
  3  4  1  0
  3  7  1  0
  4  9  2  0
  4  5  1  0
  5  6  1  0
  5  8  1  0
  6 10  2  0
  8 13  1  0
 11 12  3  0
 16 19  1  0
 19 21  2  0
 19 22  1  0
 20 27  1  0
 13 20  2  0
 20 23  1  0
 23 24  2  0
 24 25  1  0
 25 26  2  0
 26 13  1  0
  7 18  2  0
 18 17  1  0
 17 16  2  0
 16 15  1  0
 15 14  2  0
 14  7  1  0
M  END

$$$$
No_119-gen_results_new/Mpro_initial_molecule_p3/2024-06-19-20-31-25/
     RDKit          3D

 28 30  0  0  0  0  0  0  0  0999 V2000
  -10.3383   15.1532   67.5971 C   0  0  0  0  0  0  0  0  0  0  0  0
  -10.7220   15.1619   68.8301 N   0  0  0  0  0  0  0  0  0  0  0  0
  -10.4044   16.2024   69.6852 N   0  0  0  0  0  0  0  0  0  0  0  0
   -9.7271   17.3221   69.2607 C   0  0  0  0  0  0  0  0  0  0  0  0
   -9.3095   17.3212   67.9557 N   0  0  0  0  0  0  0  0  0  0  0  0
   -9.5450   16.2958   67.0814 C   0  0  0  0  0  0  0  0  0  0  0  0
  -10.8644   16.0907   71.0374 C   0  0  0  0  0  0  0  0  0  0  0  0
   -8.5330   18.4792   67.4604 C   0  0  0  0  0  0  0  0  0  0  0  0
   -9.5433   18.2987   69.9938 O   0  0  0  0  0  0  0  0  0  0  0  0
   -9.1481   16.2876   65.9124 O   0  0  0  0  0  0  0  0  0  0  0  0
  -10.7304   14.0247   66.8209 C   0  0  0  0  0  0  0  0  0  0  0  0
  -11.1003   13.0895   66.2465 N   0  0  0  0  0  0  0  0  0  0  0  0
   -7.0275   18.2876   67.7219 C   0  0  0  0  0  0  0  0  0  0  0  0
  -10.0126   16.3511   72.1395 C   0  0  0  0  0  0  0  0  0  0  0  0
  -10.4883   16.2212   73.4591 C   0  0  0  0  0  0  0  0  0  0  0  0
  -11.8103   15.8022   73.6966 C   0  0  0  0  0  0  0  0  0  0  0  0
  -12.6594   15.5153   72.6113 C   0  0  0  0  0  0  0  0  0  0  0  0
  -12.1896   15.6561   71.2886 C   0  0  0  0  0  0  0  0  0  0  0  0
  -12.2768   15.6000   75.1088 C   0  0  0  0  0  0  0  0  0  0  0  0
   -6.4522   19.3092   67.8826 C   0  0  0  0  0  0  0  0  0  0  0  0
  -12.3537   14.5923   75.5994 O   0  0  0  0  0  0  0  0  0  0  0  0
  -12.4205   16.7483   75.8013 N   0  0  0  0  0  0  0  0  0  0  0  0
   -6.3700   20.4051   67.0253 C   0  0  0  0  0  0  0  0  0  0  0  0
   -7.7686   20.6437   66.4634 C   0  0  0  0  0  0  0  0  0  0  0  0
   -8.8473   19.6421   66.7112 C   0  0  0  0  0  0  0  0  0  0  0  0
   -5.5061   21.3554   66.8158 O   0  0  0  0  0  0  0  0  0  0  0  0
   -4.1876   21.0331   67.0156 C   0  0  0  0  0  0  0  0  0  0  0  0
  -13.9720   15.0173   72.8282 O   0  0  0  0  0  0  0  0  0  0  0  0
  1  2  2  0
  1  6  1  0
  1 11  1  0
  2  3  1  0
  3  4  1  0
  3  7  1  0
  4  9  2  0
  4  5  1  0
  5  6  1  0
  5  8  1  0
  6 10  2  0
 11 12  3  0
 16 19  1  0
 19 21  2  0
 19 22  1  0
 23 26  1  0
 26 27  1  0
 17 28  1  0
  8 13  2  0
 13 20  1  0
 20 23  2  0
 23 24  1  0
 24 25  2  0
 25  8  1  0
  7 18  2  0
 18 17  1  0
 17 16  2  0
 16 15  1  0
 15 14  2  0
 14  7  1  0
M  END

$$$$
No_120-gen_results_new/Mpro_initial_molecule_p3/2024-06-19-20-31-25/
     RDKit          3D

 28 30  0  0  0  0  0  0  0  0999 V2000
  -10.3383   15.1532   67.5971 C   0  0  0  0  0  0  0  0  0  0  0  0
  -10.7220   15.1619   68.8301 N   0  0  0  0  0  0  0  0  0  0  0  0
  -10.4044   16.2024   69.6852 N   0  0  0  0  0  0  0  0  0  0  0  0
   -9.7271   17.3221   69.2607 C   0  0  0  0  0  0  0  0  0  0  0  0
   -9.3095   17.3212   67.9557 N   0  0  0  0  0  0  0  0  0  0  0  0
   -9.5450   16.2958   67.0814 C   0  0  0  0  0  0  0  0  0  0  0  0
  -10.8644   16.0907   71.0374 C   0  0  0  0  0  0  0  0  0  0  0  0
   -8.5330   18.4792   67.4604 C   0  0  0  0  0  0  0  0  0  0  0  0
   -9.5433   18.2987   69.9938 O   0  0  0  0  0  0  0  0  0  0  0  0
   -9.1481   16.2876   65.9124 O   0  0  0  0  0  0  0  0  0  0  0  0
  -10.7304   14.0247   66.8209 C   0  0  0  0  0  0  0  0  0  0  0  0
  -11.1003   13.0895   66.2465 N   0  0  0  0  0  0  0  0  0  0  0  0
   -7.0275   18.2876   67.7219 C   0  0  0  0  0  0  0  0  0  0  0  0
  -10.0126   16.3511   72.1395 C   0  0  0  0  0  0  0  0  0  0  0  0
  -10.4883   16.2212   73.4591 C   0  0  0  0  0  0  0  0  0  0  0  0
  -11.8103   15.8022   73.6966 C   0  0  0  0  0  0  0  0  0  0  0  0
  -12.6594   15.5153   72.6113 C   0  0  0  0  0  0  0  0  0  0  0  0
  -12.1896   15.6561   71.2886 C   0  0  0  0  0  0  0  0  0  0  0  0
  -12.2484   15.6088   75.0145 O   0  0  0  0  0  0  0  0  0  0  0  0
   -6.5341   17.3731   68.3686 C   0  0  0  0  0  0  0  0  0  0  0  0
   -5.1247   17.1828   68.5818 C   0  0  0  0  0  0  0  0  0  0  0  0
   -4.4393   18.0516   67.8375 C   0  0  0  0  0  0  0  0  0  0  0  0
   -4.8689   19.0477   67.0691 C   0  0  0  0  0  0  0  0  0  0  0  0
   -6.2627   19.1642   66.9258 C   0  0  0  0  0  0  0  0  0  0  0  0
  -12.3371   16.7920   75.7212 C   0  0  0  0  0  0  0  0  0  0  0  0
  -14.0713   14.8947   72.8095 C   0  0  0  0  0  0  0  0  0  0  0  0
   -4.0873   19.9304   66.3670 O   0  0  0  0  0  0  0  0  0  0  0  0
   -4.4665   21.1873   66.2229 C   0  0  0  0  0  0  0  0  0  0  0  0
  1  2  2  0
  1  6  1  0
  1 11  1  0
  2  3  1  0
  3  4  1  0
  3  7  1  0
  4  9  2  0
  4  5  1  0
  5  6  1  0
  5  8  1  0
  6 10  2  0
  8 13  1  0
 11 12  3  0
 16 19  1  0
 19 25  1  0
 17 26  1  0
 23 27  1  0
 27 28  1  0
 13 20  2  0
 20 21  1  0
 21 22  2  0
 22 23  1  0
 23 24  2  0
 24 13  1  0
  7 18  2  0
 18 17  1  0
 17 16  2  0
 16 15  1  0
 15 14  2  0
 14  7  1  0
M  END

$$$$
No_121-gen_results_new/Mpro_initial_molecule_p3/2024-06-19-20-31-25/
     RDKit          3D

 28 30  0  0  0  0  0  0  0  0999 V2000
  -10.3383   15.1532   67.5971 C   0  0  0  0  0  0  0  0  0  0  0  0
  -10.7220   15.1619   68.8301 N   0  0  0  0  0  0  0  0  0  0  0  0
  -10.4044   16.2024   69.6852 N   0  0  0  0  0  0  0  0  0  0  0  0
   -9.7271   17.3221   69.2607 C   0  0  0  0  0  0  0  0  0  0  0  0
   -9.3095   17.3212   67.9557 N   0  0  0  0  0  0  0  0  0  0  0  0
   -9.5450   16.2958   67.0814 C   0  0  0  0  0  0  0  0  0  0  0  0
  -10.8644   16.0907   71.0374 C   0  0  0  0  0  0  0  0  0  0  0  0
   -8.5330   18.4792   67.4604 C   0  0  0  0  0  0  0  0  0  0  0  0
   -9.5433   18.2987   69.9938 O   0  0  0  0  0  0  0  0  0  0  0  0
   -9.1481   16.2876   65.9124 O   0  0  0  0  0  0  0  0  0  0  0  0
  -10.7304   14.0247   66.8209 C   0  0  0  0  0  0  0  0  0  0  0  0
  -11.1003   13.0895   66.2465 N   0  0  0  0  0  0  0  0  0  0  0  0
   -7.0275   18.2876   67.7219 C   0  0  0  0  0  0  0  0  0  0  0  0
  -10.0126   16.3511   72.1395 C   0  0  0  0  0  0  0  0  0  0  0  0
  -10.4883   16.2212   73.4591 C   0  0  0  0  0  0  0  0  0  0  0  0
  -11.8103   15.8022   73.6966 C   0  0  0  0  0  0  0  0  0  0  0  0
  -12.6594   15.5153   72.6113 C   0  0  0  0  0  0  0  0  0  0  0  0
  -12.1896   15.6561   71.2886 C   0  0  0  0  0  0  0  0  0  0  0  0
  -12.2768   15.6000   75.1088 C   0  0  0  0  0  0  0  0  0  0  0  0
   -6.5341   17.3729   68.3685 C   0  0  0  0  0  0  0  0  0  0  0  0
   -5.1249   17.1827   68.5818 C   0  0  0  0  0  0  0  0  0  0  0  0
   -4.4393   18.0516   67.8378 C   0  0  0  0  0  0  0  0  0  0  0  0
   -2.8542   17.9857   67.8780 S   0  0  0  0  0  0  0  0  0  0  0  0
   -6.2152   19.1377   67.0200 C   0  0  0  0  0  0  0  0  0  0  0  0
   -4.9507   19.0971   67.1080 C   0  0  0  0  0  0  0  0  0  0  0  0
   -2.4422   18.6731   69.1049 O   0  0  0  0  0  0  0  0  0  0  0  0
   -2.1765   18.3251   66.7054 O   0  0  0  0  0  0  0  0  0  0  0  0
   -2.3410   16.3266   68.0641 N   0  0  0  0  0  0  0  0  0  0  0  0
  1  2  2  0
  1  6  1  0
  1 11  1  0
  2  3  1  0
  3  4  1  0
  3  7  1  0
  4  9  2  0
  4  5  1  0
  5  6  1  0
  5  8  1  0
  6 10  2  0
  8 13  1  0
 11 12  3  0
 16 19  1  0
 22 23  1  0
 23 26  2  0
 23 27  2  0
 23 28  1  0
 13 20  2  0
 20 21  1  0
 21 22  2  0
 22 25  1  0
 25 24  2  0
 24 13  1  0
  7 18  2  0
 18 17  1  0
 17 16  2  0
 16 15  1  0
 15 14  2  0
 14  7  1  0
M  END

$$$$
No_122-gen_results_new/Mpro_initial_molecule_p3/2024-06-19-20-31-25/
     RDKit          3D

 28 30  0  0  0  0  0  0  0  0999 V2000
  -10.3383   15.1532   67.5971 C   0  0  0  0  0  0  0  0  0  0  0  0
  -10.7220   15.1619   68.8301 N   0  0  0  0  0  0  0  0  0  0  0  0
  -10.4044   16.2024   69.6852 N   0  0  0  0  0  0  0  0  0  0  0  0
   -9.7271   17.3221   69.2607 C   0  0  0  0  0  0  0  0  0  0  0  0
   -9.3095   17.3212   67.9557 N   0  0  0  0  0  0  0  0  0  0  0  0
   -9.5450   16.2958   67.0814 C   0  0  0  0  0  0  0  0  0  0  0  0
  -10.8644   16.0907   71.0374 C   0  0  0  0  0  0  0  0  0  0  0  0
   -8.5330   18.4792   67.4604 C   0  0  0  0  0  0  0  0  0  0  0  0
   -9.5433   18.2987   69.9938 O   0  0  0  0  0  0  0  0  0  0  0  0
   -9.1481   16.2876   65.9124 O   0  0  0  0  0  0  0  0  0  0  0  0
  -10.7304   14.0247   66.8209 C   0  0  0  0  0  0  0  0  0  0  0  0
  -11.1003   13.0895   66.2465 N   0  0  0  0  0  0  0  0  0  0  0  0
   -7.0275   18.2876   67.7219 C   0  0  0  0  0  0  0  0  0  0  0  0
  -10.0126   16.3511   72.1395 C   0  0  0  0  0  0  0  0  0  0  0  0
  -10.4883   16.2212   73.4591 C   0  0  0  0  0  0  0  0  0  0  0  0
  -11.8103   15.8022   73.6966 C   0  0  0  0  0  0  0  0  0  0  0  0
  -12.6594   15.5153   72.6113 C   0  0  0  0  0  0  0  0  0  0  0  0
  -12.1896   15.6561   71.2886 C   0  0  0  0  0  0  0  0  0  0  0  0
  -12.2768   15.6000   75.1088 C   0  0  0  0  0  0  0  0  0  0  0  0
   -6.4522   19.3092   67.8826 C   0  0  0  0  0  0  0  0  0  0  0  0
  -11.9582   16.3232   75.9332 O   0  0  0  0  0  0  0  0  0  0  0  0
   -4.9618   19.3660   67.8926 C   0  0  0  0  0  0  0  0  0  0  0  0
   -4.1219   20.9415   68.1938 Cl  0  0  0  0  0  0  0  0  0  0  0  0
  -13.1725   14.8315   75.3286 O   0  0  0  0  0  0  0  0  0  0  0  0
   -4.3596   18.3017   68.6374 C   0  0  0  0  0  0  0  0  0  0  0  0
   -5.1621   16.9567   68.5017 C   0  0  0  0  0  0  0  0  0  0  0  0
   -6.5414   17.0056   68.1200 C   0  0  0  0  0  0  0  0  0  0  0  0
   -3.0467   18.2311   68.8822 O   0  0  0  0  0  0  0  0  0  0  0  0
  1  2  2  0
  1  6  1  0
  1 11  1  0
  2  3  1  0
  3  4  1  0
  3  7  1  0
  4  9  2  0
  4  5  1  0
  5  6  1  0
  5  8  1  0
  6 10  2  0
  8 13  1  0
 11 12  3  0
 16 19  1  0
 19 21  2  0
 22 23  1  0
 19 24  1  0
 25 28  1  0
 13 20  2  0
 20 22  1  0
 22 25  2  0
 25 26  1  0
 26 27  2  0
 27 13  1  0
  7 18  2  0
 18 17  1  0
 17 16  2  0
 16 15  1  0
 15 14  2  0
 14  7  1  0
M  END

$$$$
No_123-gen_results_new/Mpro_initial_molecule_p3/2024-06-19-20-31-25/
     RDKit          3D

 28 30  0  0  0  0  0  0  0  0999 V2000
  -10.3383   15.1532   67.5971 C   0  0  0  0  0  0  0  0  0  0  0  0
  -10.7220   15.1619   68.8301 N   0  0  0  0  0  0  0  0  0  0  0  0
  -10.4044   16.2024   69.6852 N   0  0  0  0  0  0  0  0  0  0  0  0
   -9.7271   17.3221   69.2607 C   0  0  0  0  0  0  0  0  0  0  0  0
   -9.3095   17.3212   67.9557 N   0  0  0  0  0  0  0  0  0  0  0  0
   -9.5450   16.2958   67.0814 C   0  0  0  0  0  0  0  0  0  0  0  0
  -10.8644   16.0907   71.0374 C   0  0  0  0  0  0  0  0  0  0  0  0
   -8.5330   18.4792   67.4604 C   0  0  0  0  0  0  0  0  0  0  0  0
   -9.5433   18.2987   69.9938 O   0  0  0  0  0  0  0  0  0  0  0  0
   -9.1481   16.2876   65.9124 O   0  0  0  0  0  0  0  0  0  0  0  0
  -10.7304   14.0247   66.8209 C   0  0  0  0  0  0  0  0  0  0  0  0
  -11.1003   13.0895   66.2465 N   0  0  0  0  0  0  0  0  0  0  0  0
   -7.0275   18.2876   67.7219 C   0  0  0  0  0  0  0  0  0  0  0  0
  -10.0126   16.3511   72.1395 C   0  0  0  0  0  0  0  0  0  0  0  0
  -10.4883   16.2212   73.4591 C   0  0  0  0  0  0  0  0  0  0  0  0
  -11.8103   15.8022   73.6966 C   0  0  0  0  0  0  0  0  0  0  0  0
  -12.6594   15.5153   72.6113 C   0  0  0  0  0  0  0  0  0  0  0  0
  -12.1896   15.6561   71.2886 C   0  0  0  0  0  0  0  0  0  0  0  0
  -12.2768   15.6000   75.1088 C   0  0  0  0  0  0  0  0  0  0  0  0
   -6.4522   19.3092   67.8826 C   0  0  0  0  0  0  0  0  0  0  0  0
  -12.3537   14.5923   75.5994 O   0  0  0  0  0  0  0  0  0  0  0  0
  -12.2286   16.6680   75.8386 O   0  0  0  0  0  0  0  0  0  0  0  0
   -6.0762   19.5150   69.0938 C   0  0  0  0  0  0  0  0  0  0  0  0
   -4.9348   20.3743   69.5017 C   0  0  0  0  0  0  0  0  0  0  0  0
   -4.1327   20.8991   68.4670 C   0  0  0  0  0  0  0  0  0  0  0  0
   -4.2732   20.4758   67.1519 C   0  0  0  0  0  0  0  0  0  0  0  0
   -5.4583   19.7263   66.8338 C   0  0  0  0  0  0  0  0  0  0  0  0
   -5.7225   19.4657   65.4999 N   0  0  0  0  0  0  0  0  0  0  0  0
  1  2  2  0
  1  6  1  0
  1 11  1  0
  2  3  1  0
  3  4  1  0
  3  7  1  0
  4  9  2  0
  4  5  1  0
  5  6  1  0
  5  8  1  0
  6 10  2  0
  8 13  1  0
 11 12  3  0
 16 19  1  0
 13 20  1  0
 19 21  2  0
 19 22  1  0
 27 28  1  0
 20 23  2  0
 23 24  1  0
 24 25  2  0
 25 26  1  0
 26 27  2  0
 27 20  1  0
  7 18  2  0
 18 17  1  0
 17 16  2  0
 16 15  1  0
 15 14  2  0
 14  7  1  0
M  END

$$$$
No_124-gen_results_new/Mpro_initial_molecule_p3/2024-06-19-20-31-25/
     RDKit          3D

 28 30  0  0  0  0  0  0  0  0999 V2000
  -10.3383   15.1532   67.5971 C   0  0  0  0  0  0  0  0  0  0  0  0
  -10.7220   15.1619   68.8301 N   0  0  0  0  0  0  0  0  0  0  0  0
  -10.4044   16.2024   69.6852 N   0  0  0  0  0  0  0  0  0  0  0  0
   -9.7271   17.3221   69.2607 C   0  0  0  0  0  0  0  0  0  0  0  0
   -9.3095   17.3212   67.9557 N   0  0  0  0  0  0  0  0  0  0  0  0
   -9.5450   16.2958   67.0814 C   0  0  0  0  0  0  0  0  0  0  0  0
  -10.8644   16.0907   71.0374 C   0  0  0  0  0  0  0  0  0  0  0  0
   -8.5330   18.4792   67.4604 C   0  0  0  0  0  0  0  0  0  0  0  0
   -9.5433   18.2987   69.9938 O   0  0  0  0  0  0  0  0  0  0  0  0
   -9.1481   16.2876   65.9124 O   0  0  0  0  0  0  0  0  0  0  0  0
  -10.7304   14.0247   66.8209 C   0  0  0  0  0  0  0  0  0  0  0  0
  -11.1003   13.0895   66.2465 N   0  0  0  0  0  0  0  0  0  0  0  0
   -7.0275   18.2876   67.7219 C   0  0  0  0  0  0  0  0  0  0  0  0
  -10.0126   16.3511   72.1395 C   0  0  0  0  0  0  0  0  0  0  0  0
  -10.4883   16.2212   73.4591 C   0  0  0  0  0  0  0  0  0  0  0  0
  -11.8103   15.8022   73.6966 C   0  0  0  0  0  0  0  0  0  0  0  0
  -12.6594   15.5153   72.6113 C   0  0  0  0  0  0  0  0  0  0  0  0
  -12.1896   15.6561   71.2886 C   0  0  0  0  0  0  0  0  0  0  0  0
  -12.2768   15.6000   75.1088 C   0  0  0  0  0  0  0  0  0  0  0  0
   -6.5341   17.3729   68.3685 C   0  0  0  0  0  0  0  0  0  0  0  0
   -5.1308   17.1882   68.5568 C   0  0  0  0  0  0  0  0  0  0  0  0
   -6.3132   19.4047   67.2946 C   0  0  0  0  0  0  0  0  0  0  0  0
   -4.9040   19.2890   67.4766 C   0  0  0  0  0  0  0  0  0  0  0  0
   -4.3512   18.1958   68.1017 C   0  0  0  0  0  0  0  0  0  0  0  0
  -12.3515   14.5927   75.5999 O   0  0  0  0  0  0  0  0  0  0  0  0
  -12.1989   16.7301   75.8908 N   0  0  0  0  0  0  0  0  0  0  0  0
   -4.0545   20.4400   67.0445 C   0  0  0  0  0  0  0  0  0  0  0  0
   -3.7825   20.6151   65.7310 C   0  0  0  0  0  0  0  0  0  0  0  0
  1  2  2  0
  1  6  1  0
  1 11  1  0
  2  3  1  0
  3  4  1  0
  3  7  1  0
  4  9  2  0
  4  5  1  0
  5  6  1  0
  5  8  1  0
  6 10  2  0
  8 13  1  0
 11 12  3  0
 16 19  1  0
 19 25  2  0
 19 26  1  0
 23 27  1  0
 27 28  1  0
 13 20  2  0
 20 21  1  0
 21 24  2  0
 24 23  1  0
 23 22  2  0
 22 13  1  0
  7 18  2  0
 18 17  1  0
 17 16  2  0
 16 15  1  0
 15 14  2  0
 14  7  1  0
M  END

$$$$
No_125-gen_results_new/Mpro_initial_molecule_p3/2024-06-19-20-31-25/
     RDKit          3D

 28 30  0  0  0  0  0  0  0  0999 V2000
  -10.3383   15.1532   67.5971 C   0  0  0  0  0  0  0  0  0  0  0  0
  -10.7220   15.1619   68.8301 N   0  0  0  0  0  0  0  0  0  0  0  0
  -10.4044   16.2024   69.6852 N   0  0  0  0  0  0  0  0  0  0  0  0
   -9.7271   17.3221   69.2607 C   0  0  0  0  0  0  0  0  0  0  0  0
   -9.3095   17.3212   67.9557 N   0  0  0  0  0  0  0  0  0  0  0  0
   -9.5450   16.2958   67.0814 C   0  0  0  0  0  0  0  0  0  0  0  0
  -10.8644   16.0907   71.0374 C   0  0  0  0  0  0  0  0  0  0  0  0
   -8.5330   18.4792   67.4604 C   0  0  0  0  0  0  0  0  0  0  0  0
   -9.5433   18.2987   69.9938 O   0  0  0  0  0  0  0  0  0  0  0  0
   -9.1481   16.2876   65.9124 O   0  0  0  0  0  0  0  0  0  0  0  0
  -10.7304   14.0247   66.8209 C   0  0  0  0  0  0  0  0  0  0  0  0
  -11.1003   13.0895   66.2465 N   0  0  0  0  0  0  0  0  0  0  0  0
   -7.0275   18.2876   67.7219 C   0  0  0  0  0  0  0  0  0  0  0  0
  -10.0126   16.3511   72.1395 C   0  0  0  0  0  0  0  0  0  0  0  0
  -10.4883   16.2212   73.4591 C   0  0  0  0  0  0  0  0  0  0  0  0
  -11.8103   15.8022   73.6966 C   0  0  0  0  0  0  0  0  0  0  0  0
  -12.6594   15.5153   72.6113 C   0  0  0  0  0  0  0  0  0  0  0  0
  -12.1896   15.6561   71.2886 C   0  0  0  0  0  0  0  0  0  0  0  0
  -12.3486   15.5799   75.3255 Cl  0  0  0  0  0  0  0  0  0  0  0  0
   -6.5558   17.2018   67.9045 O   0  0  0  0  0  0  0  0  0  0  0  0
   -6.3090   19.3658   67.4558 N   0  0  0  0  0  0  0  0  0  0  0  0
   -5.0861   19.8317   67.3904 C   0  0  0  0  0  0  0  0  0  0  0  0
   -4.3998   19.9209   68.6167 C   0  0  0  0  0  0  0  0  0  0  0  0
   -3.0526   20.3237   68.5264 N   0  0  0  0  0  0  0  0  0  0  0  0
   -2.5040   20.6082   67.3967 C   0  0  0  0  0  0  0  0  0  0  0  0
   -4.5185   20.1414   66.2350 C   0  0  0  0  0  0  0  0  0  0  0  0
   -3.1693   20.5515   66.2154 C   0  0  0  0  0  0  0  0  0  0  0  0
   -4.9368   19.6619   69.8357 N   0  0  0  0  0  0  0  0  0  0  0  0
  1  2  2  0
  1  6  1  0
  1 11  1  0
  2  3  1  0
  3  4  1  0
  3  7  1  0
  4  9  2  0
  4  5  1  0
  5  6  1  0
  5  8  1  0
  6 10  2  0
  8 13  1  0
 11 12  3  0
 16 19  1  0
 13 20  2  0
 13 21  1  0
 21 22  1  0
 23 28  1  0
 22 23  2  0
 23 24  1  0
 24 25  2  0
 25 27  1  0
 27 26  2  0
 26 22  1  0
  7 18  2  0
 18 17  1  0
 17 16  2  0
 16 15  1  0
 15 14  2  0
 14  7  1  0
M  END

$$$$
No_126-gen_results_new/Mpro_initial_molecule_p3/2024-06-19-20-31-25/
     RDKit          3D

 28 30  0  0  0  0  0  0  0  0999 V2000
  -10.3383   15.1532   67.5971 C   0  0  0  0  0  0  0  0  0  0  0  0
  -10.7220   15.1619   68.8301 N   0  0  0  0  0  0  0  0  0  0  0  0
  -10.4044   16.2024   69.6852 N   0  0  0  0  0  0  0  0  0  0  0  0
   -9.7271   17.3221   69.2607 C   0  0  0  0  0  0  0  0  0  0  0  0
   -9.3095   17.3212   67.9557 N   0  0  0  0  0  0  0  0  0  0  0  0
   -9.5450   16.2958   67.0814 C   0  0  0  0  0  0  0  0  0  0  0  0
  -10.8644   16.0907   71.0374 C   0  0  0  0  0  0  0  0  0  0  0  0
   -8.5330   18.4792   67.4604 C   0  0  0  0  0  0  0  0  0  0  0  0
   -9.5433   18.2987   69.9938 O   0  0  0  0  0  0  0  0  0  0  0  0
   -9.1481   16.2876   65.9124 O   0  0  0  0  0  0  0  0  0  0  0  0
  -10.7304   14.0247   66.8209 C   0  0  0  0  0  0  0  0  0  0  0  0
  -11.1003   13.0895   66.2465 N   0  0  0  0  0  0  0  0  0  0  0  0
   -7.0275   18.2876   67.7219 C   0  0  0  0  0  0  0  0  0  0  0  0
  -10.0126   16.3511   72.1395 C   0  0  0  0  0  0  0  0  0  0  0  0
  -10.4883   16.2212   73.4591 C   0  0  0  0  0  0  0  0  0  0  0  0
  -11.8103   15.8022   73.6966 C   0  0  0  0  0  0  0  0  0  0  0  0
  -12.6594   15.5153   72.6113 C   0  0  0  0  0  0  0  0  0  0  0  0
  -12.1896   15.6561   71.2886 C   0  0  0  0  0  0  0  0  0  0  0  0
  -12.2484   15.6088   75.0145 O   0  0  0  0  0  0  0  0  0  0  0  0
   -6.5341   17.3731   68.3686 C   0  0  0  0  0  0  0  0  0  0  0  0
   -5.0713   17.5394   68.5418 C   0  0  0  0  0  0  0  0  0  0  0  0
   -4.2817   18.2418   67.7594 C   0  0  0  0  0  0  0  0  0  0  0  0
   -4.9171   19.1697   66.9508 C   0  0  0  0  0  0  0  0  0  0  0  0
   -6.3135   19.1610   66.8062 C   0  0  0  0  0  0  0  0  0  0  0  0
  -11.8769   16.5248   75.9058 C   0  0  0  0  0  0  0  0  0  0  0  0
  -13.9761   14.9526   72.7880 O   0  0  0  0  0  0  0  0  0  0  0  0
   -4.2015   19.9899   66.1944 F   0  0  0  0  0  0  0  0  0  0  0  0
   -2.9865   18.2635   67.8736 F   0  0  0  0  0  0  0  0  0  0  0  0
  1  2  2  0
  1  6  1  0
  1 11  1  0
  2  3  1  0
  3  4  1  0
  3  7  1  0
  4  9  2  0
  4  5  1  0
  5  6  1  0
  5  8  1  0
  6 10  2  0
  8 13  1  0
 11 12  3  0
 16 19  1  0
 19 25  1  0
 17 26  1  0
 23 27  1  0
 22 28  1  0
 13 20  2  0
 20 21  1  0
 21 22  2  0
 22 23  1  0
 23 24  2  0
 24 13  1  0
  7 18  2  0
 18 17  1  0
 17 16  2  0
 16 15  1  0
 15 14  2  0
 14  7  1  0
M  END

$$$$
No_127-gen_results_new/Mpro_initial_molecule_p3/2024-06-19-20-31-25/
     RDKit          3D

 28 30  0  0  0  0  0  0  0  0999 V2000
  -10.3383   15.1532   67.5971 C   0  0  0  0  0  0  0  0  0  0  0  0
  -10.7220   15.1619   68.8301 N   0  0  0  0  0  0  0  0  0  0  0  0
  -10.4044   16.2024   69.6852 N   0  0  0  0  0  0  0  0  0  0  0  0
   -9.7271   17.3221   69.2607 C   0  0  0  0  0  0  0  0  0  0  0  0
   -9.3095   17.3212   67.9557 N   0  0  0  0  0  0  0  0  0  0  0  0
   -9.5450   16.2958   67.0814 C   0  0  0  0  0  0  0  0  0  0  0  0
  -10.8644   16.0907   71.0374 C   0  0  0  0  0  0  0  0  0  0  0  0
   -8.5330   18.4792   67.4604 C   0  0  0  0  0  0  0  0  0  0  0  0
   -9.5433   18.2987   69.9938 O   0  0  0  0  0  0  0  0  0  0  0  0
   -9.1481   16.2876   65.9124 O   0  0  0  0  0  0  0  0  0  0  0  0
  -10.7304   14.0247   66.8209 C   0  0  0  0  0  0  0  0  0  0  0  0
  -11.1003   13.0895   66.2465 N   0  0  0  0  0  0  0  0  0  0  0  0
   -7.0275   18.2876   67.7219 C   0  0  0  0  0  0  0  0  0  0  0  0
  -10.0126   16.3511   72.1395 C   0  0  0  0  0  0  0  0  0  0  0  0
  -10.4883   16.2212   73.4591 C   0  0  0  0  0  0  0  0  0  0  0  0
  -11.8103   15.8022   73.6966 C   0  0  0  0  0  0  0  0  0  0  0  0
  -12.6594   15.5153   72.6113 C   0  0  0  0  0  0  0  0  0  0  0  0
  -12.1896   15.6561   71.2886 C   0  0  0  0  0  0  0  0  0  0  0  0
  -12.2768   15.6000   75.1088 C   0  0  0  0  0  0  0  0  0  0  0  0
   -6.5341   17.3729   68.3685 C   0  0  0  0  0  0  0  0  0  0  0  0
   -5.1249   17.1827   68.5818 C   0  0  0  0  0  0  0  0  0  0  0  0
   -4.2977   17.9486   67.7745 C   0  0  0  0  0  0  0  0  0  0  0  0
   -3.0752   17.7512   67.7867 F   0  0  0  0  0  0  0  0  0  0  0  0
   -6.1730   19.0906   66.9739 C   0  0  0  0  0  0  0  0  0  0  0  0
   -4.8419   18.9999   67.0340 C   0  0  0  0  0  0  0  0  0  0  0  0
  -12.3527   14.5926   75.5996 O   0  0  0  0  0  0  0  0  0  0  0  0
  -12.4212   16.7485   75.8004 N   0  0  0  0  0  0  0  0  0  0  0  0
  -14.3055   14.8835   72.8625 Cl  0  0  0  0  0  0  0  0  0  0  0  0
  1  2  2  0
  1  6  1  0
  1 11  1  0
  2  3  1  0
  3  4  1  0
  3  7  1  0
  4  9  2  0
  4  5  1  0
  5  6  1  0
  5  8  1  0
  6 10  2  0
  8 13  1  0
 11 12  3  0
 16 19  1  0
 22 23  1  0
 19 26  2  0
 19 27  1  0
 17 28  1  0
 13 20  2  0
 20 21  1  0
 21 22  2  0
 22 25  1  0
 25 24  2  0
 24 13  1  0
  7 18  2  0
 18 17  1  0
 17 16  2  0
 16 15  1  0
 15 14  2  0
 14  7  1  0
M  END

$$$$
No_128-gen_results_new/Mpro_initial_molecule_p3/2024-06-19-20-31-25/
     RDKit          3D

 28 30  0  0  0  0  0  0  0  0999 V2000
  -10.3383   15.1532   67.5971 C   0  0  0  0  0  0  0  0  0  0  0  0
  -10.7220   15.1619   68.8301 N   0  0  0  0  0  0  0  0  0  0  0  0
  -10.4044   16.2024   69.6852 N   0  0  0  0  0  0  0  0  0  0  0  0
   -9.7271   17.3221   69.2607 C   0  0  0  0  0  0  0  0  0  0  0  0
   -9.3095   17.3212   67.9557 N   0  0  0  0  0  0  0  0  0  0  0  0
   -9.5450   16.2958   67.0814 C   0  0  0  0  0  0  0  0  0  0  0  0
  -10.8644   16.0907   71.0374 C   0  0  0  0  0  0  0  0  0  0  0  0
   -8.5330   18.4792   67.4604 C   0  0  0  0  0  0  0  0  0  0  0  0
   -9.5433   18.2987   69.9938 O   0  0  0  0  0  0  0  0  0  0  0  0
   -9.1481   16.2876   65.9124 O   0  0  0  0  0  0  0  0  0  0  0  0
  -10.7304   14.0247   66.8209 C   0  0  0  0  0  0  0  0  0  0  0  0
  -11.1003   13.0895   66.2465 N   0  0  0  0  0  0  0  0  0  0  0  0
   -7.0275   18.2876   67.7219 C   0  0  0  0  0  0  0  0  0  0  0  0
  -10.0126   16.3511   72.1395 C   0  0  0  0  0  0  0  0  0  0  0  0
  -10.4883   16.2212   73.4591 C   0  0  0  0  0  0  0  0  0  0  0  0
  -11.8103   15.8022   73.6966 C   0  0  0  0  0  0  0  0  0  0  0  0
  -12.6594   15.5153   72.6113 C   0  0  0  0  0  0  0  0  0  0  0  0
  -12.1896   15.6561   71.2886 C   0  0  0  0  0  0  0  0  0  0  0  0
  -12.2768   15.6000   75.1088 C   0  0  0  0  0  0  0  0  0  0  0  0
   -6.4522   19.3092   67.8826 C   0  0  0  0  0  0  0  0  0  0  0  0
  -12.9857   16.5602   75.4320 F   0  0  0  0  0  0  0  0  0  0  0  0
  -11.2725   15.5009   75.8806 F   0  0  0  0  0  0  0  0  0  0  0  0
  -13.0980   14.4900   74.9598 F   0  0  0  0  0  0  0  0  0  0  0  0
   -6.0550   19.5081   69.1112 C   0  0  0  0  0  0  0  0  0  0  0  0
   -5.5987   18.2977   69.7879 C   0  0  0  0  0  0  0  0  0  0  0  0
   -5.6248   17.3398   69.4990 C   0  0  0  0  0  0  0  0  0  0  0  0
   -6.9169   17.0473   68.4447 C   0  0  0  0  0  0  0  0  0  0  0  0
   -7.0161   20.5460   67.3596 N   0  0  0  0  0  0  0  0  0  0  0  0
  1  2  2  0
  1  6  1  0
  1 11  1  0
  2  3  1  0
  3  4  1  0
  3  7  1  0
  4  9  2  0
  4  5  1  0
  5  6  1  0
  5  8  1  0
  6 10  2  0
  8 13  1  0
 11 12  3  0
 16 19  1  0
 19 21  1  0
 19 22  1  0
 19 23  1  0
 20 28  1  0
  7 18  2  0
 18 17  1  0
 17 16  2  0
 16 15  1  0
 15 14  2  0
 14  7  1  0
 13 20  2  0
 20 24  1  0
 24 25  2  0
 25 26  1  0
 26 27  2  0
 27 13  1  0
M  END

$$$$
No_129-gen_results_new/Mpro_initial_molecule_p3/2024-06-19-20-31-25/
     RDKit          3D

 28 30  0  0  0  0  0  0  0  0999 V2000
  -10.3383   15.1532   67.5971 C   0  0  0  0  0  0  0  0  0  0  0  0
  -10.7220   15.1619   68.8301 N   0  0  0  0  0  0  0  0  0  0  0  0
  -10.4044   16.2024   69.6852 N   0  0  0  0  0  0  0  0  0  0  0  0
   -9.7271   17.3221   69.2607 C   0  0  0  0  0  0  0  0  0  0  0  0
   -9.3095   17.3212   67.9557 N   0  0  0  0  0  0  0  0  0  0  0  0
   -9.5450   16.2958   67.0814 C   0  0  0  0  0  0  0  0  0  0  0  0
  -10.8644   16.0907   71.0374 C   0  0  0  0  0  0  0  0  0  0  0  0
   -8.5330   18.4792   67.4604 C   0  0  0  0  0  0  0  0  0  0  0  0
   -9.5433   18.2987   69.9938 O   0  0  0  0  0  0  0  0  0  0  0  0
   -9.1481   16.2876   65.9124 O   0  0  0  0  0  0  0  0  0  0  0  0
  -10.7304   14.0247   66.8209 C   0  0  0  0  0  0  0  0  0  0  0  0
  -11.1003   13.0895   66.2465 N   0  0  0  0  0  0  0  0  0  0  0  0
   -7.0275   18.2876   67.7219 C   0  0  0  0  0  0  0  0  0  0  0  0
  -10.0126   16.3511   72.1395 C   0  0  0  0  0  0  0  0  0  0  0  0
  -10.4883   16.2212   73.4591 C   0  0  0  0  0  0  0  0  0  0  0  0
  -11.8103   15.8022   73.6966 C   0  0  0  0  0  0  0  0  0  0  0  0
  -12.6594   15.5153   72.6113 C   0  0  0  0  0  0  0  0  0  0  0  0
  -12.1896   15.6561   71.2886 C   0  0  0  0  0  0  0  0  0  0  0  0
  -12.2768   15.6000   75.1088 C   0  0  0  0  0  0  0  0  0  0  0  0
   -6.5341   17.3729   68.3685 C   0  0  0  0  0  0  0  0  0  0  0  0
   -5.1308   17.1882   68.5568 C   0  0  0  0  0  0  0  0  0  0  0  0
   -6.3132   19.4047   67.2946 C   0  0  0  0  0  0  0  0  0  0  0  0
   -4.9040   19.2890   67.4766 C   0  0  0  0  0  0  0  0  0  0  0  0
   -4.3512   18.1958   68.1017 C   0  0  0  0  0  0  0  0  0  0  0  0
  -12.3515   14.5927   75.5999 O   0  0  0  0  0  0  0  0  0  0  0  0
  -12.4199   16.7492   75.8001 N   0  0  0  0  0  0  0  0  0  0  0  0
   -4.0545   20.4400   67.0445 C   0  0  0  0  0  0  0  0  0  0  0  0
   -4.3901   21.5084   67.6819 F   0  0  0  0  0  0  0  0  0  0  0  0
  1  2  2  0
  1  6  1  0
  1 11  1  0
  2  3  1  0
  3  4  1  0
  3  7  1  0
  4  9  2  0
  4  5  1  0
  5  6  1  0
  5  8  1  0
  6 10  2  0
  8 13  1  0
 11 12  3  0
 16 19  1  0
 19 25  2  0
 19 26  1  0
 23 27  1  0
 27 28  1  0
 13 20  2  0
 20 21  1  0
 21 24  2  0
 24 23  1  0
 23 22  2  0
 22 13  1  0
  7 18  2  0
 18 17  1  0
 17 16  2  0
 16 15  1  0
 15 14  2  0
 14  7  1  0
M  END

$$$$
No_130-gen_results_new/Mpro_initial_molecule_p3/2024-06-19-20-31-25/
     RDKit          3D

 28 30  0  0  0  0  0  0  0  0999 V2000
  -10.3383   15.1532   67.5971 C   0  0  0  0  0  0  0  0  0  0  0  0
  -10.7220   15.1619   68.8301 N   0  0  0  0  0  0  0  0  0  0  0  0
  -10.4044   16.2024   69.6852 N   0  0  0  0  0  0  0  0  0  0  0  0
   -9.7271   17.3221   69.2607 C   0  0  0  0  0  0  0  0  0  0  0  0
   -9.3095   17.3212   67.9557 N   0  0  0  0  0  0  0  0  0  0  0  0
   -9.5450   16.2958   67.0814 C   0  0  0  0  0  0  0  0  0  0  0  0
  -10.8644   16.0907   71.0374 C   0  0  0  0  0  0  0  0  0  0  0  0
   -8.5330   18.4792   67.4604 C   0  0  0  0  0  0  0  0  0  0  0  0
   -9.5433   18.2987   69.9938 O   0  0  0  0  0  0  0  0  0  0  0  0
   -9.1481   16.2876   65.9124 O   0  0  0  0  0  0  0  0  0  0  0  0
  -10.7304   14.0247   66.8209 C   0  0  0  0  0  0  0  0  0  0  0  0
  -11.1003   13.0895   66.2465 N   0  0  0  0  0  0  0  0  0  0  0  0
   -7.0275   18.2876   67.7219 C   0  0  0  0  0  0  0  0  0  0  0  0
  -10.0126   16.3511   72.1395 C   0  0  0  0  0  0  0  0  0  0  0  0
  -10.4883   16.2212   73.4591 C   0  0  0  0  0  0  0  0  0  0  0  0
  -11.8103   15.8022   73.6966 C   0  0  0  0  0  0  0  0  0  0  0  0
  -12.6594   15.5153   72.6113 C   0  0  0  0  0  0  0  0  0  0  0  0
  -12.1896   15.6561   71.2886 C   0  0  0  0  0  0  0  0  0  0  0  0
  -12.3486   15.5799   75.3255 Cl  0  0  0  0  0  0  0  0  0  0  0  0
   -6.3058   19.3592   66.9157 C   0  0  0  0  0  0  0  0  0  0  0  0
   -4.9894   19.4433   66.9687 C   0  0  0  0  0  0  0  0  0  0  0  0
   -4.2710   18.3392   67.6547 C   0  0  0  0  0  0  0  0  0  0  0  0
   -5.0430   17.2550   68.3049 C   0  0  0  0  0  0  0  0  0  0  0  0
   -6.4241   17.2326   68.1847 C   0  0  0  0  0  0  0  0  0  0  0  0
   -4.2773   20.3487   66.4184 O   0  0  0  0  0  0  0  0  0  0  0  0
   -4.7495   21.5431   66.1882 C   0  0  0  0  0  0  0  0  0  0  0  0
   -4.3905   21.9787   64.7522 C   0  0  0  0  0  0  0  0  0  0  0  0
   -3.2145   22.1680   64.4762 C   0  0  0  0  0  0  0  0  0  0  0  0
  1  2  2  0
  1  6  1  0
  1 11  1  0
  2  3  1  0
  3  4  1  0
  3  7  1  0
  4  9  2  0
  4  5  1  0
  5  6  1  0
  5  8  1  0
  6 10  2  0
  8 13  1  0
 11 12  3  0
 16 19  1  0
 21 25  1  0
 25 26  1  0
 26 27  1  0
 27 28  1  0
 13 20  2  0
 20 21  1  0
 21 22  2  0
 22 23  1  0
 23 24  2  0
 24 13  1  0
  7 18  2  0
 18 17  1  0
 17 16  2  0
 16 15  1  0
 15 14  2  0
 14  7  1  0
M  END

$$$$
No_131-gen_results_new/Mpro_initial_molecule_p3/2024-06-19-20-31-25/
     RDKit          3D

 28 30  0  0  0  0  0  0  0  0999 V2000
  -10.3383   15.1532   67.5971 C   0  0  0  0  0  0  0  0  0  0  0  0
  -10.7220   15.1619   68.8301 N   0  0  0  0  0  0  0  0  0  0  0  0
  -10.4044   16.2024   69.6852 N   0  0  0  0  0  0  0  0  0  0  0  0
   -9.7271   17.3221   69.2607 C   0  0  0  0  0  0  0  0  0  0  0  0
   -9.3095   17.3212   67.9557 N   0  0  0  0  0  0  0  0  0  0  0  0
   -9.5450   16.2958   67.0814 C   0  0  0  0  0  0  0  0  0  0  0  0
  -10.8644   16.0907   71.0374 C   0  0  0  0  0  0  0  0  0  0  0  0
   -8.5330   18.4792   67.4604 C   0  0  0  0  0  0  0  0  0  0  0  0
   -9.5433   18.2987   69.9938 O   0  0  0  0  0  0  0  0  0  0  0  0
   -9.1481   16.2876   65.9124 O   0  0  0  0  0  0  0  0  0  0  0  0
  -10.7304   14.0247   66.8209 C   0  0  0  0  0  0  0  0  0  0  0  0
  -11.1003   13.0895   66.2465 N   0  0  0  0  0  0  0  0  0  0  0  0
   -7.0275   18.2876   67.7219 C   0  0  0  0  0  0  0  0  0  0  0  0
  -10.0126   16.3511   72.1395 C   0  0  0  0  0  0  0  0  0  0  0  0
  -10.4883   16.2212   73.4591 C   0  0  0  0  0  0  0  0  0  0  0  0
  -11.8103   15.8022   73.6966 C   0  0  0  0  0  0  0  0  0  0  0  0
  -12.6594   15.5153   72.6113 C   0  0  0  0  0  0  0  0  0  0  0  0
  -12.1896   15.6561   71.2886 C   0  0  0  0  0  0  0  0  0  0  0  0
  -12.3486   15.5799   75.3255 Cl  0  0  0  0  0  0  0  0  0  0  0  0
   -6.5344   17.3734   68.3696 C   0  0  0  0  0  0  0  0  0  0  0  0
   -5.1310   17.1884   68.5570 C   0  0  0  0  0  0  0  0  0  0  0  0
   -6.2282   19.1878   66.9085 C   0  0  0  0  0  0  0  0  0  0  0  0
   -4.8273   19.0031   67.0387 C   0  0  0  0  0  0  0  0  0  0  0  0
   -4.3061   18.0194   67.7979 C   0  0  0  0  0  0  0  0  0  0  0  0
  -14.1199   14.9541   72.8040 C   0  0  0  0  0  0  0  0  0  0  0  0
   -6.8560   20.2660   66.0642 C   0  0  0  0  0  0  0  0  0  0  0  0
   -7.8562   20.2390   65.7115 N   0  0  0  0  0  0  0  0  0  0  0  0
   -6.0686   21.0489   65.5021 O   0  0  0  0  0  0  0  0  0  0  0  0
  1  2  2  0
  1  6  1  0
  1 11  1  0
  2  3  1  0
  3  4  1  0
  3  7  1  0
  4  9  2  0
  4  5  1  0
  5  6  1  0
  5  8  1  0
  6 10  2  0
  8 13  1  0
 11 12  3  0
 16 19  1  0
 17 25  1  0
 22 26  1  0
 26 27  1  0
 26 28  2  0
 13 20  2  0
 20 21  1  0
 21 24  2  0
 24 23  1  0
 23 22  2  0
 22 13  1  0
  7 18  2  0
 18 17  1  0
 17 16  2  0
 16 15  1  0
 15 14  2  0
 14  7  1  0
M  END

$$$$
No_132-gen_results_new/Mpro_initial_molecule_p3/2024-06-19-20-31-25/
     RDKit          3D

 28 30  0  0  0  0  0  0  0  0999 V2000
  -10.3383   15.1532   67.5971 C   0  0  0  0  0  0  0  0  0  0  0  0
  -10.7220   15.1619   68.8301 N   0  0  0  0  0  0  0  0  0  0  0  0
  -10.4044   16.2024   69.6852 N   0  0  0  0  0  0  0  0  0  0  0  0
   -9.7271   17.3221   69.2607 C   0  0  0  0  0  0  0  0  0  0  0  0
   -9.3095   17.3212   67.9557 N   0  0  0  0  0  0  0  0  0  0  0  0
   -9.5450   16.2958   67.0814 C   0  0  0  0  0  0  0  0  0  0  0  0
  -10.8644   16.0907   71.0374 C   0  0  0  0  0  0  0  0  0  0  0  0
   -8.5330   18.4792   67.4604 C   0  0  0  0  0  0  0  0  0  0  0  0
   -9.5433   18.2987   69.9938 O   0  0  0  0  0  0  0  0  0  0  0  0
   -9.1481   16.2876   65.9124 O   0  0  0  0  0  0  0  0  0  0  0  0
  -10.7304   14.0247   66.8209 C   0  0  0  0  0  0  0  0  0  0  0  0
  -11.1003   13.0895   66.2465 N   0  0  0  0  0  0  0  0  0  0  0  0
   -7.0275   18.2876   67.7219 C   0  0  0  0  0  0  0  0  0  0  0  0
  -10.0126   16.3511   72.1395 C   0  0  0  0  0  0  0  0  0  0  0  0
  -10.4883   16.2212   73.4591 C   0  0  0  0  0  0  0  0  0  0  0  0
  -11.8103   15.8022   73.6966 C   0  0  0  0  0  0  0  0  0  0  0  0
  -12.6594   15.5153   72.6113 C   0  0  0  0  0  0  0  0  0  0  0  0
  -12.1896   15.6561   71.2886 C   0  0  0  0  0  0  0  0  0  0  0  0
  -12.2768   15.6000   75.1088 C   0  0  0  0  0  0  0  0  0  0  0  0
   -6.3332   19.2807   66.8947 N   0  0  0  0  0  0  0  0  0  0  0  0
   -4.9893   19.0970   66.8658 C   0  0  0  0  0  0  0  0  0  0  0  0
  -12.3534   14.5919   75.5992 O   0  0  0  0  0  0  0  0  0  0  0  0
  -12.8123   16.6647   75.6562 O   0  0  0  0  0  0  0  0  0  0  0  0
   -4.4023   17.9769   67.5423 C   0  0  0  0  0  0  0  0  0  0  0  0
   -3.0760   17.7669   67.3568 N   0  0  0  0  0  0  0  0  0  0  0  0
   -2.3576   18.6257   66.6690 C   0  0  0  0  0  0  0  0  0  0  0  0
   -4.2256   19.9880   66.1371 C   0  0  0  0  0  0  0  0  0  0  0  0
   -2.7791   19.7549   66.1277 C   0  0  0  0  0  0  0  0  0  0  0  0
  1  2  2  0
  1  6  1  0
  1 11  1  0
  2  3  1  0
  3  4  1  0
  3  7  1  0
  4  9  2  0
  4  5  1  0
  5  6  1  0
  5  8  1  0
  6 10  2  0
  8 13  1  0
 11 12  3  0
 16 19  1  0
 13 20  1  0
 20 21  1  0
 19 22  2  0
 19 23  1  0
  7 18  2  0
 18 17  1  0
 17 16  2  0
 16 15  1  0
 15 14  2  0
 14  7  1  0
 21 24  2  0
 24 25  1  0
 25 26  2  0
 26 28  1  0
 28 27  2  0
 27 21  1  0
M  END

$$$$
No_133-gen_results_new/Mpro_initial_molecule_p3/2024-06-19-20-31-25/
     RDKit          3D

 28 30  0  0  0  0  0  0  0  0999 V2000
  -10.3383   15.1532   67.5971 C   0  0  0  0  0  0  0  0  0  0  0  0
  -10.7220   15.1619   68.8301 N   0  0  0  0  0  0  0  0  0  0  0  0
  -10.4044   16.2024   69.6852 N   0  0  0  0  0  0  0  0  0  0  0  0
   -9.7271   17.3221   69.2607 C   0  0  0  0  0  0  0  0  0  0  0  0
   -9.3095   17.3212   67.9557 N   0  0  0  0  0  0  0  0  0  0  0  0
   -9.5450   16.2958   67.0814 C   0  0  0  0  0  0  0  0  0  0  0  0
  -10.8644   16.0907   71.0374 C   0  0  0  0  0  0  0  0  0  0  0  0
   -8.5330   18.4792   67.4604 C   0  0  0  0  0  0  0  0  0  0  0  0
   -9.5433   18.2987   69.9938 O   0  0  0  0  0  0  0  0  0  0  0  0
   -9.1481   16.2876   65.9124 O   0  0  0  0  0  0  0  0  0  0  0  0
  -10.7304   14.0247   66.8209 C   0  0  0  0  0  0  0  0  0  0  0  0
  -11.1003   13.0895   66.2465 N   0  0  0  0  0  0  0  0  0  0  0  0
   -7.0275   18.2876   67.7219 C   0  0  0  0  0  0  0  0  0  0  0  0
  -10.0126   16.3511   72.1395 C   0  0  0  0  0  0  0  0  0  0  0  0
  -10.4883   16.2212   73.4591 C   0  0  0  0  0  0  0  0  0  0  0  0
  -11.8103   15.8022   73.6966 C   0  0  0  0  0  0  0  0  0  0  0  0
  -12.6594   15.5153   72.6113 C   0  0  0  0  0  0  0  0  0  0  0  0
  -12.1896   15.6561   71.2886 C   0  0  0  0  0  0  0  0  0  0  0  0
  -12.3486   15.5799   75.3255 Cl  0  0  0  0  0  0  0  0  0  0  0  0
   -6.4523   19.3079   67.8835 C   0  0  0  0  0  0  0  0  0  0  0  0
   -6.2032   19.5449   69.0280 C   0  0  0  0  0  0  0  0  0  0  0  0
   -5.0283   20.3340   69.5330 C   0  0  0  0  0  0  0  0  0  0  0  0
   -4.1491   20.7182   68.5748 C   0  0  0  0  0  0  0  0  0  0  0  0
   -4.2143   20.2842   67.2305 C   0  0  0  0  0  0  0  0  0  0  0  0
   -3.3711   20.7437   66.2406 C   0  0  0  0  0  0  0  0  0  0  0  0
   -5.4102   19.6058   66.8328 C   0  0  0  0  0  0  0  0  0  0  0  0
   -3.5740   21.7469   65.7435 O   0  0  0  0  0  0  0  0  0  0  0  0
   -2.6083   19.8712   65.6379 N   0  0  0  0  0  0  0  0  0  0  0  0
  1  2  2  0
  1  6  1  0
  1 11  1  0
  2  3  1  0
  3  4  1  0
  3  7  1  0
  4  9  2  0
  4  5  1  0
  5  6  1  0
  5  8  1  0
  6 10  2  0
  8 13  1  0
 11 12  3  0
 16 19  1  0
 13 20  1  0
 24 25  1  0
 25 27  2  0
 25 28  1  0
  7 18  2  0
 18 17  1  0
 17 16  2  0
 16 15  1  0
 15 14  2  0
 14  7  1  0
 20 21  2  0
 21 22  1  0
 22 23  2  0
 23 24  1  0
 24 26  2  0
 26 20  1  0
M  END

$$$$
No_134-gen_results_new/Mpro_initial_molecule_p3/2024-06-19-20-31-25/
     RDKit          3D

 28 29  0  0  0  0  0  0  0  0999 V2000
  -10.3383   15.1532   67.5971 C   0  0  0  0  0  0  0  0  0  0  0  0
  -10.7220   15.1619   68.8301 N   0  0  0  0  0  0  0  0  0  0  0  0
  -10.4044   16.2024   69.6852 N   0  0  0  0  0  0  0  0  0  0  0  0
   -9.7271   17.3221   69.2607 C   0  0  0  0  0  0  0  0  0  0  0  0
   -9.3095   17.3212   67.9557 N   0  0  0  0  0  0  0  0  0  0  0  0
   -9.5450   16.2958   67.0814 C   0  0  0  0  0  0  0  0  0  0  0  0
  -10.8644   16.0907   71.0374 C   0  0  0  0  0  0  0  0  0  0  0  0
   -8.5330   18.4792   67.4604 C   0  0  0  0  0  0  0  0  0  0  0  0
   -9.5433   18.2987   69.9938 O   0  0  0  0  0  0  0  0  0  0  0  0
   -9.1481   16.2876   65.9124 O   0  0  0  0  0  0  0  0  0  0  0  0
  -10.7304   14.0247   66.8209 C   0  0  0  0  0  0  0  0  0  0  0  0
  -11.1003   13.0895   66.2465 N   0  0  0  0  0  0  0  0  0  0  0  0
   -7.0275   18.2876   67.7219 C   0  0  0  0  0  0  0  0  0  0  0  0
  -10.0126   16.3511   72.1395 C   0  0  0  0  0  0  0  0  0  0  0  0
  -10.4883   16.2212   73.4591 C   0  0  0  0  0  0  0  0  0  0  0  0
  -11.8103   15.8022   73.6966 C   0  0  0  0  0  0  0  0  0  0  0  0
  -12.6594   15.5153   72.6113 C   0  0  0  0  0  0  0  0  0  0  0  0
  -12.1896   15.6561   71.2886 C   0  0  0  0  0  0  0  0  0  0  0  0
  -12.2768   15.6000   75.1088 C   0  0  0  0  0  0  0  0  0  0  0  0
   -6.4522   19.3092   67.8826 C   0  0  0  0  0  0  0  0  0  0  0  0
  -12.6566   14.5412   75.4435 F   0  0  0  0  0  0  0  0  0  0  0  0
  -11.2458   15.8563   75.9514 F   0  0  0  0  0  0  0  0  0  0  0  0
  -13.2793   16.5816   75.3045 F   0  0  0  0  0  0  0  0  0  0  0  0
   -4.9620   19.3657   67.8984 C   0  0  0  0  0  0  0  0  0  0  0  0
   -4.2441   20.6394   68.0494 C   0  0  0  0  0  0  0  0  0  0  0  0
   -3.5723   21.1015   67.0397 C   0  0  0  0  0  0  0  0  0  0  0  0
   -4.0979   21.9970   66.4154 O   0  0  0  0  0  0  0  0  0  0  0  0
   -2.3118   20.8818   66.8043 N   0  0  0  0  0  0  0  0  0  0  0  0
  1  2  2  0
  1  6  1  0
  1 11  1  0
  2  3  1  0
  3  4  1  0
  3  7  1  0
  4  9  2  0
  4  5  1  0
  5  6  1  0
  5  8  1  0
  6 10  2  0
  8 13  1  0
 11 12  3  0
 16 19  1  0
 13 20  1  0
 19 21  1  0
 19 22  1  0
 19 23  1  0
 20 24  1  0
 24 25  1  0
 25 26  1  0
 26 27  2  0
 26 28  1  0
  7 18  2  0
 18 17  1  0
 17 16  2  0
 16 15  1  0
 15 14  2  0
 14  7  1  0
M  END

$$$$
No_135-gen_results_new/Mpro_initial_molecule_p3/2024-06-19-20-31-25/
     RDKit          3D

 28 30  0  0  0  0  0  0  0  0999 V2000
  -10.3383   15.1532   67.5971 C   0  0  0  0  0  0  0  0  0  0  0  0
  -10.7220   15.1619   68.8301 N   0  0  0  0  0  0  0  0  0  0  0  0
  -10.4044   16.2024   69.6852 N   0  0  0  0  0  0  0  0  0  0  0  0
   -9.7271   17.3221   69.2607 C   0  0  0  0  0  0  0  0  0  0  0  0
   -9.3095   17.3212   67.9557 N   0  0  0  0  0  0  0  0  0  0  0  0
   -9.5450   16.2958   67.0814 C   0  0  0  0  0  0  0  0  0  0  0  0
  -10.8644   16.0907   71.0374 C   0  0  0  0  0  0  0  0  0  0  0  0
   -8.5330   18.4792   67.4604 C   0  0  0  0  0  0  0  0  0  0  0  0
   -9.5433   18.2987   69.9938 O   0  0  0  0  0  0  0  0  0  0  0  0
   -9.1481   16.2876   65.9124 O   0  0  0  0  0  0  0  0  0  0  0  0
  -10.7304   14.0247   66.8209 C   0  0  0  0  0  0  0  0  0  0  0  0
  -11.1003   13.0895   66.2465 N   0  0  0  0  0  0  0  0  0  0  0  0
   -7.0275   18.2876   67.7219 C   0  0  0  0  0  0  0  0  0  0  0  0
  -10.0126   16.3511   72.1395 C   0  0  0  0  0  0  0  0  0  0  0  0
  -10.4883   16.2212   73.4591 C   0  0  0  0  0  0  0  0  0  0  0  0
  -11.8103   15.8022   73.6966 C   0  0  0  0  0  0  0  0  0  0  0  0
  -12.6594   15.5153   72.6113 C   0  0  0  0  0  0  0  0  0  0  0  0
  -12.1896   15.6561   71.2886 C   0  0  0  0  0  0  0  0  0  0  0  0
  -12.2768   15.6000   75.1088 C   0  0  0  0  0  0  0  0  0  0  0  0
   -6.5341   17.3729   68.3685 C   0  0  0  0  0  0  0  0  0  0  0  0
   -5.1249   17.1827   68.5818 C   0  0  0  0  0  0  0  0  0  0  0  0
   -4.4393   18.0516   67.8378 C   0  0  0  0  0  0  0  0  0  0  0  0
   -4.8689   19.0478   67.0695 C   0  0  0  0  0  0  0  0  0  0  0  0
   -6.2627   19.1643   66.9261 C   0  0  0  0  0  0  0  0  0  0  0  0
  -12.5818   16.5942   75.6961 O   0  0  0  0  0  0  0  0  0  0  0  0
  -12.1192   14.5198   75.5992 O   0  0  0  0  0  0  0  0  0  0  0  0
  -13.9772   14.9951   72.8153 N   0  0  0  0  0  0  0  0  0  0  0  0
   -3.9998   19.9994   66.3274 C   0  0  0  0  0  0  0  0  0  0  0  0
  1  2  2  0
  1  6  1  0
  1 11  1  0
  2  3  1  0
  3  4  1  0
  3  7  1  0
  4  9  2  0
  4  5  1  0
  5  6  1  0
  5  8  1  0
  6 10  2  0
  8 13  1  0
 11 12  3  0
 16 19  1  0
 19 25  2  0
 19 26  1  0
 17 27  1  0
 23 28  1  0
 13 20  2  0
 20 21  1  0
 21 22  2  0
 22 23  1  0
 23 24  2  0
 24 13  1  0
  7 18  2  0
 18 17  1  0
 17 16  2  0
 16 15  1  0
 15 14  2  0
 14  7  1  0
M  END

$$$$
No_136-gen_results_new/Mpro_initial_molecule_p3/2024-06-19-20-31-25/
     RDKit          3D

 28 30  0  0  0  0  0  0  0  0999 V2000
  -10.3383   15.1532   67.5971 C   0  0  0  0  0  0  0  0  0  0  0  0
  -10.7220   15.1619   68.8301 N   0  0  0  0  0  0  0  0  0  0  0  0
  -10.4044   16.2024   69.6852 N   0  0  0  0  0  0  0  0  0  0  0  0
   -9.7271   17.3221   69.2607 C   0  0  0  0  0  0  0  0  0  0  0  0
   -9.3095   17.3212   67.9557 N   0  0  0  0  0  0  0  0  0  0  0  0
   -9.5450   16.2958   67.0814 C   0  0  0  0  0  0  0  0  0  0  0  0
  -10.8644   16.0907   71.0374 C   0  0  0  0  0  0  0  0  0  0  0  0
   -8.5330   18.4792   67.4604 C   0  0  0  0  0  0  0  0  0  0  0  0
   -9.5433   18.2987   69.9938 O   0  0  0  0  0  0  0  0  0  0  0  0
   -9.1481   16.2876   65.9124 O   0  0  0  0  0  0  0  0  0  0  0  0
  -10.7304   14.0247   66.8209 C   0  0  0  0  0  0  0  0  0  0  0  0
  -11.1003   13.0895   66.2465 N   0  0  0  0  0  0  0  0  0  0  0  0
   -7.0275   18.2876   67.7219 C   0  0  0  0  0  0  0  0  0  0  0  0
  -10.0126   16.3511   72.1395 C   0  0  0  0  0  0  0  0  0  0  0  0
  -10.4883   16.2212   73.4591 C   0  0  0  0  0  0  0  0  0  0  0  0
  -11.8103   15.8022   73.6966 C   0  0  0  0  0  0  0  0  0  0  0  0
  -12.6594   15.5153   72.6113 C   0  0  0  0  0  0  0  0  0  0  0  0
  -12.1896   15.6561   71.2886 C   0  0  0  0  0  0  0  0  0  0  0  0
  -12.2497   15.6113   74.9888 F   0  0  0  0  0  0  0  0  0  0  0  0
   -6.4523   19.3083   67.8808 C   0  0  0  0  0  0  0  0  0  0  0  0
   -4.9655   19.3662   67.8799 C   0  0  0  0  0  0  0  0  0  0  0  0
   -4.3063   18.1861   67.6855 C   0  0  0  0  0  0  0  0  0  0  0  0
   -5.0519   16.9686   67.4565 C   0  0  0  0  0  0  0  0  0  0  0  0
   -6.4950   17.0417   67.4075 C   0  0  0  0  0  0  0  0  0  0  0  0
   -4.2765   20.4873   68.1861 O   0  0  0  0  0  0  0  0  0  0  0  0
   -2.9423   20.4232   67.9687 C   0  0  0  0  0  0  0  0  0  0  0  0
  -14.0023   15.0046   72.8251 O   0  0  0  0  0  0  0  0  0  0  0  0
   -2.5999   20.7702   66.9444 C   0  0  0  0  0  0  0  0  0  0  0  0
  1  2  2  0
  1  6  1  0
  1 11  1  0
  2  3  1  0
  3  4  1  0
  3  7  1  0
  4  9  2  0
  4  5  1  0
  5  6  1  0
  5  8  1  0
  6 10  2  0
  8 13  1  0
 11 12  3  0
 16 19  1  0
 21 25  1  0
 25 26  1  0
 17 27  1  0
 26 28  1  0
 13 20  2  0
 20 21  1  0
 21 22  2  0
 22 23  1  0
 23 24  2  0
 24 13  1  0
  7 18  2  0
 18 17  1  0
 17 16  2  0
 16 15  1  0
 15 14  2  0
 14  7  1  0
M  END

$$$$
No_137-gen_results_new/Mpro_initial_molecule_p3/2024-06-19-20-31-25/
     RDKit          3D

 27 29  0  0  0  0  0  0  0  0999 V2000
  -10.3383   15.1532   67.5971 C   0  0  0  0  0  0  0  0  0  0  0  0
  -10.7220   15.1619   68.8301 N   0  0  0  0  0  0  0  0  0  0  0  0
  -10.4044   16.2024   69.6852 N   0  0  0  0  0  0  0  0  0  0  0  0
   -9.7271   17.3221   69.2607 C   0  0  0  0  0  0  0  0  0  0  0  0
   -9.3095   17.3212   67.9557 N   0  0  0  0  0  0  0  0  0  0  0  0
   -9.5450   16.2958   67.0814 C   0  0  0  0  0  0  0  0  0  0  0  0
  -10.8644   16.0907   71.0374 C   0  0  0  0  0  0  0  0  0  0  0  0
   -8.5330   18.4792   67.4604 C   0  0  0  0  0  0  0  0  0  0  0  0
   -9.5433   18.2987   69.9938 O   0  0  0  0  0  0  0  0  0  0  0  0
   -9.1481   16.2876   65.9124 O   0  0  0  0  0  0  0  0  0  0  0  0
  -10.7304   14.0247   66.8209 C   0  0  0  0  0  0  0  0  0  0  0  0
  -11.1003   13.0895   66.2465 N   0  0  0  0  0  0  0  0  0  0  0  0
   -7.0275   18.2876   67.7219 C   0  0  0  0  0  0  0  0  0  0  0  0
  -10.0126   16.3511   72.1395 C   0  0  0  0  0  0  0  0  0  0  0  0
  -10.4883   16.2212   73.4591 C   0  0  0  0  0  0  0  0  0  0  0  0
  -11.8103   15.8022   73.6966 C   0  0  0  0  0  0  0  0  0  0  0  0
  -12.6594   15.5153   72.6113 C   0  0  0  0  0  0  0  0  0  0  0  0
  -12.1896   15.6561   71.2886 C   0  0  0  0  0  0  0  0  0  0  0  0
  -12.2768   15.6000   75.1088 C   0  0  0  0  0  0  0  0  0  0  0  0
   -6.4522   19.3092   67.8826 C   0  0  0  0  0  0  0  0  0  0  0  0
  -11.9783   16.5270   75.8867 N   0  0  0  0  0  0  0  0  0  0  0  0
   -4.9616   19.3659   67.8962 C   0  0  0  0  0  0  0  0  0  0  0  0
   -4.2442   20.6403   68.0481 C   0  0  0  0  0  0  0  0  0  0  0  0
   -3.5726   21.1028   67.0396 C   0  0  0  0  0  0  0  0  0  0  0  0
   -3.0638   20.1679   66.0213 C   0  0  0  0  0  0  0  0  0  0  0  0
   -3.5510   19.1811   65.7638 C   0  0  0  0  0  0  0  0  0  0  0  0
   -4.7042   18.6243   66.6068 C   0  0  0  0  0  0  0  0  0  0  0  0
  1  2  2  0
  1  6  1  0
  1 11  1  0
  2  3  1  0
  3  4  1  0
  3  7  1  0
  4  9  2  0
  4  5  1  0
  5  6  1  0
  5  8  1  0
  6 10  2  0
  8 13  1  0
 11 12  3  0
 16 19  1  0
 13 20  1  0
 19 21  1  0
 20 22  1  0
 22 23  2  0
 23 24  1  0
 24 25  2  0
 25 26  1  0
 26 27  2  0
 27 22  1  0
  7 18  2  0
 18 17  1  0
 17 16  2  0
 16 15  1  0
 15 14  2  0
 14  7  1  0
M  END

$$$$
No_138-gen_results_new/Mpro_initial_molecule_p3/2024-06-19-20-31-25/
     RDKit          3D

 28 30  0  0  0  0  0  0  0  0999 V2000
  -10.3383   15.1532   67.5971 C   0  0  0  0  0  0  0  0  0  0  0  0
  -10.7220   15.1619   68.8301 N   0  0  0  0  0  0  0  0  0  0  0  0
  -10.4044   16.2024   69.6852 N   0  0  0  0  0  0  0  0  0  0  0  0
   -9.7271   17.3221   69.2607 C   0  0  0  0  0  0  0  0  0  0  0  0
   -9.3095   17.3212   67.9557 N   0  0  0  0  0  0  0  0  0  0  0  0
   -9.5450   16.2958   67.0814 C   0  0  0  0  0  0  0  0  0  0  0  0
  -10.8644   16.0907   71.0374 C   0  0  0  0  0  0  0  0  0  0  0  0
   -8.5330   18.4792   67.4604 C   0  0  0  0  0  0  0  0  0  0  0  0
   -9.5433   18.2987   69.9938 O   0  0  0  0  0  0  0  0  0  0  0  0
   -9.1481   16.2876   65.9124 O   0  0  0  0  0  0  0  0  0  0  0  0
  -10.7304   14.0247   66.8209 C   0  0  0  0  0  0  0  0  0  0  0  0
  -11.1003   13.0895   66.2465 N   0  0  0  0  0  0  0  0  0  0  0  0
   -7.0275   18.2876   67.7219 C   0  0  0  0  0  0  0  0  0  0  0  0
  -10.0126   16.3511   72.1395 C   0  0  0  0  0  0  0  0  0  0  0  0
  -10.4883   16.2212   73.4591 C   0  0  0  0  0  0  0  0  0  0  0  0
  -11.8103   15.8022   73.6966 C   0  0  0  0  0  0  0  0  0  0  0  0
  -12.6594   15.5153   72.6113 C   0  0  0  0  0  0  0  0  0  0  0  0
  -12.1896   15.6561   71.2886 C   0  0  0  0  0  0  0  0  0  0  0  0
  -12.3486   15.5799   75.3255 Cl  0  0  0  0  0  0  0  0  0  0  0  0
   -6.4523   19.3079   67.8835 C   0  0  0  0  0  0  0  0  0  0  0  0
   -6.2032   19.5449   69.0280 C   0  0  0  0  0  0  0  0  0  0  0  0
   -5.6840   18.3857   69.7844 C   0  0  0  0  0  0  0  0  0  0  0  0
   -6.2430   17.0342   69.3917 C   0  0  0  0  0  0  0  0  0  0  0  0
   -5.9299   15.8902   70.2329 C   0  0  0  0  0  0  0  0  0  0  0  0
   -6.8844   17.0377   68.3165 C   0  0  0  0  0  0  0  0  0  0  0  0
   -5.2969   15.0948   69.9554 O   0  0  0  0  0  0  0  0  0  0  0  0
   -6.3056   15.9111   71.6580 N   0  0  0  0  0  0  0  0  0  0  0  0
   -7.1733   20.5622   67.3963 F   0  0  0  0  0  0  0  0  0  0  0  0
  1  2  2  0
  1  6  1  0
  1 11  1  0
  2  3  1  0
  3  4  1  0
  3  7  1  0
  4  9  2  0
  4  5  1  0
  5  6  1  0
  5  8  1  0
  6 10  2  0
  8 13  1  0
 11 12  3  0
 16 19  1  0
 23 24  1  0
 24 26  2  0
 24 27  1  0
 20 28  1  0
 13 20  2  0
 20 21  1  0
 21 22  2  0
 22 23  1  0
 23 25  2  0
 25 13  1  0
  7 18  2  0
 18 17  1  0
 17 16  2  0
 16 15  1  0
 15 14  2  0
 14  7  1  0
M  END

$$$$
No_139-gen_results_new/Mpro_initial_molecule_p3/2024-06-19-20-31-25/
     RDKit          3D

 28 30  0  0  0  0  0  0  0  0999 V2000
  -10.3383   15.1532   67.5971 C   0  0  0  0  0  0  0  0  0  0  0  0
  -10.7220   15.1619   68.8301 N   0  0  0  0  0  0  0  0  0  0  0  0
  -10.4044   16.2024   69.6852 N   0  0  0  0  0  0  0  0  0  0  0  0
   -9.7271   17.3221   69.2607 C   0  0  0  0  0  0  0  0  0  0  0  0
   -9.3095   17.3212   67.9557 N   0  0  0  0  0  0  0  0  0  0  0  0
   -9.5450   16.2958   67.0814 C   0  0  0  0  0  0  0  0  0  0  0  0
  -10.8644   16.0907   71.0374 C   0  0  0  0  0  0  0  0  0  0  0  0
   -8.5330   18.4792   67.4604 C   0  0  0  0  0  0  0  0  0  0  0  0
   -9.5433   18.2987   69.9938 O   0  0  0  0  0  0  0  0  0  0  0  0
   -9.1481   16.2876   65.9124 O   0  0  0  0  0  0  0  0  0  0  0  0
  -10.7304   14.0247   66.8209 C   0  0  0  0  0  0  0  0  0  0  0  0
  -11.1003   13.0895   66.2465 N   0  0  0  0  0  0  0  0  0  0  0  0
   -7.0275   18.2876   67.7219 C   0  0  0  0  0  0  0  0  0  0  0  0
  -10.0126   16.3511   72.1395 C   0  0  0  0  0  0  0  0  0  0  0  0
  -10.4883   16.2212   73.4591 C   0  0  0  0  0  0  0  0  0  0  0  0
  -11.8103   15.8022   73.6966 C   0  0  0  0  0  0  0  0  0  0  0  0
  -12.6594   15.5153   72.6113 C   0  0  0  0  0  0  0  0  0  0  0  0
  -12.1896   15.6561   71.2886 C   0  0  0  0  0  0  0  0  0  0  0  0
  -12.3486   15.5799   75.3255 Cl  0  0  0  0  0  0  0  0  0  0  0  0
   -6.5558   17.2018   67.9045 O   0  0  0  0  0  0  0  0  0  0  0  0
   -6.3090   19.3658   67.4558 N   0  0  0  0  0  0  0  0  0  0  0  0
   -4.9194   19.4057   67.5522 C   0  0  0  0  0  0  0  0  0  0  0  0
   -4.3166   19.6207   66.3441 C   0  0  0  0  0  0  0  0  0  0  0  0
   -4.7615   20.2262   65.3948 N   0  0  0  0  0  0  0  0  0  0  0  0
   -4.0944   20.3530   64.1440 C   0  0  0  0  0  0  0  0  0  0  0  0
   -3.3660   18.6704   65.9067 C   0  0  0  0  0  0  0  0  0  0  0  0
   -2.8043   18.5117   64.6744 C   0  0  0  0  0  0  0  0  0  0  0  0
   -3.2939   19.3668   63.6731 C   0  0  0  0  0  0  0  0  0  0  0  0
  1  2  2  0
  1  6  1  0
  1 11  1  0
  2  3  1  0
  3  4  1  0
  3  7  1  0
  4  9  2  0
  4  5  1  0
  5  6  1  0
  5  8  1  0
  6 10  2  0
  8 13  1  0
 11 12  3  0
 16 19  1  0
 13 20  2  0
 13 21  1  0
 21 22  1  0
 22 23  1  0
 23 24  2  0
 24 25  1  0
 25 28  2  0
 28 27  1  0
 27 26  2  0
 26 23  1  0
  7 18  2  0
 18 17  1  0
 17 16  2  0
 16 15  1  0
 15 14  2  0
 14  7  1  0
M  END

$$$$
No_140-gen_results_new/Mpro_initial_molecule_p3/2024-06-19-20-31-25/
     RDKit          3D

 25 27  0  0  0  0  0  0  0  0999 V2000
  -10.3383   15.1532   67.5971 C   0  0  0  0  0  0  0  0  0  0  0  0
  -10.7220   15.1619   68.8301 N   0  0  0  0  0  0  0  0  0  0  0  0
  -10.4044   16.2024   69.6852 N   0  0  0  0  0  0  0  0  0  0  0  0
   -9.7271   17.3221   69.2607 C   0  0  0  0  0  0  0  0  0  0  0  0
   -9.3095   17.3212   67.9557 N   0  0  0  0  0  0  0  0  0  0  0  0
   -9.5450   16.2958   67.0814 C   0  0  0  0  0  0  0  0  0  0  0  0
  -10.8644   16.0907   71.0374 C   0  0  0  0  0  0  0  0  0  0  0  0
   -8.5330   18.4792   67.4604 C   0  0  0  0  0  0  0  0  0  0  0  0
   -9.5433   18.2987   69.9938 O   0  0  0  0  0  0  0  0  0  0  0  0
   -9.1481   16.2876   65.9124 O   0  0  0  0  0  0  0  0  0  0  0  0
  -10.7304   14.0247   66.8209 C   0  0  0  0  0  0  0  0  0  0  0  0
  -11.1003   13.0895   66.2465 N   0  0  0  0  0  0  0  0  0  0  0  0
   -7.0275   18.2876   67.7219 C   0  0  0  0  0  0  0  0  0  0  0  0
  -10.0126   16.3511   72.1395 C   0  0  0  0  0  0  0  0  0  0  0  0
  -10.4883   16.2212   73.4591 C   0  0  0  0  0  0  0  0  0  0  0  0
  -11.8103   15.8022   73.6966 C   0  0  0  0  0  0  0  0  0  0  0  0
  -12.6594   15.5153   72.6113 C   0  0  0  0  0  0  0  0  0  0  0  0
  -12.1896   15.6561   71.2886 C   0  0  0  0  0  0  0  0  0  0  0  0
  -12.3486   15.5799   75.3255 Cl  0  0  0  0  0  0  0  0  0  0  0  0
   -6.4523   19.3079   67.8835 C   0  0  0  0  0  0  0  0  0  0  0  0
   -6.2032   19.5449   69.0280 C   0  0  0  0  0  0  0  0  0  0  0  0
   -5.6840   18.3857   69.7844 C   0  0  0  0  0  0  0  0  0  0  0  0
   -6.2430   17.0342   69.3917 C   0  0  0  0  0  0  0  0  0  0  0  0
   -7.0139   17.0490   68.3797 C   0  0  0  0  0  0  0  0  0  0  0  0
   -6.5088   20.3429   66.9320 O   0  0  0  0  0  0  0  0  0  0  0  0
  1  2  2  0
  1  6  1  0
  1 11  1  0
  2  3  1  0
  3  4  1  0
  3  7  1  0
  4  9  2  0
  4  5  1  0
  5  6  1  0
  5  8  1  0
  6 10  2  0
  8 13  1  0
 11 12  3  0
 16 19  1  0
 20 25  1  0
 13 20  2  0
 20 21  1  0
 21 22  2  0
 22 23  1  0
 23 24  2  0
 24 13  1  0
  7 18  2  0
 18 17  1  0
 17 16  2  0
 16 15  1  0
 15 14  2  0
 14  7  1  0
M  END

$$$$
No_141-gen_results_new/Mpro_initial_molecule_p3/2024-06-19-20-31-25/
     RDKit          3D

 28 30  0  0  0  0  0  0  0  0999 V2000
  -10.3383   15.1532   67.5971 C   0  0  0  0  0  0  0  0  0  0  0  0
  -10.7220   15.1619   68.8301 N   0  0  0  0  0  0  0  0  0  0  0  0
  -10.4044   16.2024   69.6852 N   0  0  0  0  0  0  0  0  0  0  0  0
   -9.7271   17.3221   69.2607 C   0  0  0  0  0  0  0  0  0  0  0  0
   -9.3095   17.3212   67.9557 N   0  0  0  0  0  0  0  0  0  0  0  0
   -9.5450   16.2958   67.0814 C   0  0  0  0  0  0  0  0  0  0  0  0
  -10.8644   16.0907   71.0374 C   0  0  0  0  0  0  0  0  0  0  0  0
   -8.5330   18.4792   67.4604 C   0  0  0  0  0  0  0  0  0  0  0  0
   -9.5433   18.2987   69.9938 O   0  0  0  0  0  0  0  0  0  0  0  0
   -9.1481   16.2876   65.9124 O   0  0  0  0  0  0  0  0  0  0  0  0
  -10.7304   14.0247   66.8209 C   0  0  0  0  0  0  0  0  0  0  0  0
  -11.1003   13.0895   66.2465 N   0  0  0  0  0  0  0  0  0  0  0  0
   -7.0275   18.2876   67.7219 C   0  0  0  0  0  0  0  0  0  0  0  0
  -10.0126   16.3511   72.1395 C   0  0  0  0  0  0  0  0  0  0  0  0
  -10.4883   16.2212   73.4591 C   0  0  0  0  0  0  0  0  0  0  0  0
  -11.8103   15.8022   73.6966 C   0  0  0  0  0  0  0  0  0  0  0  0
  -12.6594   15.5153   72.6113 C   0  0  0  0  0  0  0  0  0  0  0  0
  -12.1896   15.6561   71.2886 C   0  0  0  0  0  0  0  0  0  0  0  0
  -12.3486   15.5799   75.3255 Cl  0  0  0  0  0  0  0  0  0  0  0  0
   -6.5344   17.3734   68.3696 C   0  0  0  0  0  0  0  0  0  0  0  0
   -5.1310   17.1884   68.5570 C   0  0  0  0  0  0  0  0  0  0  0  0
   -6.3132   19.4044   67.2937 C   0  0  0  0  0  0  0  0  0  0  0  0
   -4.9038   19.2886   67.4758 C   0  0  0  0  0  0  0  0  0  0  0  0
   -4.3512   18.1958   68.1015 C   0  0  0  0  0  0  0  0  0  0  0  0
   -4.1431   20.3749   67.0803 O   0  0  0  0  0  0  0  0  0  0  0  0
   -2.8883   20.3002   67.0062 C   0  0  0  0  0  0  0  0  0  0  0  0
  -14.1201   14.9528   72.8068 C   0  0  0  0  0  0  0  0  0  0  0  0
   -2.2936   20.5063   68.0909 C   0  0  0  0  0  0  0  0  0  0  0  0
  1  2  2  0
  1  6  1  0
  1 11  1  0
  2  3  1  0
  3  4  1  0
  3  7  1  0
  4  9  2  0
  4  5  1  0
  5  6  1  0
  5  8  1  0
  6 10  2  0
  8 13  1  0
 11 12  3  0
 16 19  1  0
 23 25  1  0
 25 26  1  0
 17 27  1  0
 26 28  1  0
 13 20  2  0
 20 21  1  0
 21 24  2  0
 24 23  1  0
 23 22  2  0
 22 13  1  0
  7 18  2  0
 18 17  1  0
 17 16  2  0
 16 15  1  0
 15 14  2  0
 14  7  1  0
M  END

$$$$
No_142-gen_results_new/Mpro_initial_molecule_p3/2024-06-19-20-31-25/
     RDKit          3D

 28 29  0  0  0  0  0  0  0  0999 V2000
  -10.3383   15.1532   67.5971 C   0  0  0  0  0  0  0  0  0  0  0  0
  -10.7220   15.1619   68.8301 N   0  0  0  0  0  0  0  0  0  0  0  0
  -10.4044   16.2024   69.6852 N   0  0  0  0  0  0  0  0  0  0  0  0
   -9.7271   17.3221   69.2607 C   0  0  0  0  0  0  0  0  0  0  0  0
   -9.3095   17.3212   67.9557 N   0  0  0  0  0  0  0  0  0  0  0  0
   -9.5450   16.2958   67.0814 C   0  0  0  0  0  0  0  0  0  0  0  0
  -10.8644   16.0907   71.0374 C   0  0  0  0  0  0  0  0  0  0  0  0
   -8.5330   18.4792   67.4604 C   0  0  0  0  0  0  0  0  0  0  0  0
   -9.5433   18.2987   69.9938 O   0  0  0  0  0  0  0  0  0  0  0  0
   -9.1481   16.2876   65.9124 O   0  0  0  0  0  0  0  0  0  0  0  0
  -10.7304   14.0247   66.8209 C   0  0  0  0  0  0  0  0  0  0  0  0
  -11.1003   13.0895   66.2465 N   0  0  0  0  0  0  0  0  0  0  0  0
   -7.0275   18.2876   67.7219 C   0  0  0  0  0  0  0  0  0  0  0  0
  -10.0126   16.3511   72.1395 C   0  0  0  0  0  0  0  0  0  0  0  0
  -10.4883   16.2212   73.4591 C   0  0  0  0  0  0  0  0  0  0  0  0
  -11.8103   15.8022   73.6966 C   0  0  0  0  0  0  0  0  0  0  0  0
  -12.6594   15.5153   72.6113 C   0  0  0  0  0  0  0  0  0  0  0  0
  -12.1896   15.6561   71.2886 C   0  0  0  0  0  0  0  0  0  0  0  0
  -12.2768   15.6000   75.1088 C   0  0  0  0  0  0  0  0  0  0  0  0
   -6.5556   17.2014   67.9036 O   0  0  0  0  0  0  0  0  0  0  0  0
   -6.3088   19.3657   67.4560 N   0  0  0  0  0  0  0  0  0  0  0  0
  -12.6558   14.5410   75.4432 F   0  0  0  0  0  0  0  0  0  0  0  0
  -13.1190   16.6082   75.4026 F   0  0  0  0  0  0  0  0  0  0  0  0
  -11.2615   15.8369   75.9947 F   0  0  0  0  0  0  0  0  0  0  0  0
   -5.0861   19.8346   67.3988 C   0  0  0  0  0  0  0  0  0  0  0  0
   -4.6679   20.9723   66.8095 C   0  0  0  0  0  0  0  0  0  0  0  0
   -5.5364   21.7900   66.3508 O   0  0  0  0  0  0  0  0  0  0  0  0
   -3.3775   21.1952   66.9962 O   0  0  0  0  0  0  0  0  0  0  0  0
  1  2  2  0
  1  6  1  0
  1 11  1  0
  2  3  1  0
  3  4  1  0
  3  7  1  0
  4  9  2  0
  4  5  1  0
  5  6  1  0
  5  8  1  0
  6 10  2  0
  8 13  1  0
 11 12  3  0
 16 19  1  0
 13 20  2  0
 13 21  1  0
 19 22  1  0
 19 23  1  0
 19 24  1  0
 21 25  1  0
 25 26  1  0
 26 27  2  0
 26 28  1  0
  7 18  2  0
 18 17  1  0
 17 16  2  0
 16 15  1  0
 15 14  2  0
 14  7  1  0
M  END

$$$$
No_143-gen_results_new/Mpro_initial_molecule_p3/2024-06-19-20-31-25/
     RDKit          3D

 28 30  0  0  0  0  0  0  0  0999 V2000
  -10.3383   15.1532   67.5971 C   0  0  0  0  0  0  0  0  0  0  0  0
  -10.7220   15.1619   68.8301 N   0  0  0  0  0  0  0  0  0  0  0  0
  -10.4044   16.2024   69.6852 N   0  0  0  0  0  0  0  0  0  0  0  0
   -9.7271   17.3221   69.2607 C   0  0  0  0  0  0  0  0  0  0  0  0
   -9.3095   17.3212   67.9557 N   0  0  0  0  0  0  0  0  0  0  0  0
   -9.5450   16.2958   67.0814 C   0  0  0  0  0  0  0  0  0  0  0  0
  -10.8644   16.0907   71.0374 C   0  0  0  0  0  0  0  0  0  0  0  0
   -8.5330   18.4792   67.4604 C   0  0  0  0  0  0  0  0  0  0  0  0
   -9.5433   18.2987   69.9938 O   0  0  0  0  0  0  0  0  0  0  0  0
   -9.1481   16.2876   65.9124 O   0  0  0  0  0  0  0  0  0  0  0  0
  -10.7304   14.0247   66.8209 C   0  0  0  0  0  0  0  0  0  0  0  0
  -11.1003   13.0895   66.2465 N   0  0  0  0  0  0  0  0  0  0  0  0
   -7.0275   18.2876   67.7219 C   0  0  0  0  0  0  0  0  0  0  0  0
  -10.0126   16.3511   72.1395 C   0  0  0  0  0  0  0  0  0  0  0  0
  -10.4883   16.2212   73.4591 C   0  0  0  0  0  0  0  0  0  0  0  0
  -11.8103   15.8022   73.6966 C   0  0  0  0  0  0  0  0  0  0  0  0
  -12.6594   15.5153   72.6113 C   0  0  0  0  0  0  0  0  0  0  0  0
  -12.1896   15.6561   71.2886 C   0  0  0  0  0  0  0  0  0  0  0  0
  -12.3486   15.5799   75.3255 Cl  0  0  0  0  0  0  0  0  0  0  0  0
   -6.4523   19.3079   67.8835 C   0  0  0  0  0  0  0  0  0  0  0  0
   -4.9674   19.3665   67.8795 C   0  0  0  0  0  0  0  0  0  0  0  0
   -4.2474   20.6429   68.0405 C   0  0  0  0  0  0  0  0  0  0  0  0
   -3.2801   20.4329   69.1959 C   0  0  0  0  0  0  0  0  0  0  0  0
   -3.5525   19.9145   70.2004 C   0  0  0  0  0  0  0  0  0  0  0  0
   -3.9268   18.3602   70.0384 C   0  0  0  0  0  0  0  0  0  0  0  0
   -4.2913   17.4883   71.0003 C   0  0  0  0  0  0  0  0  0  0  0  0
   -4.6509   18.3115   68.9765 C   0  0  0  0  0  0  0  0  0  0  0  0
   -5.2256   16.4481   70.8024 C   0  0  0  0  0  0  0  0  0  0  0  0
  1  2  2  0
  1  6  1  0
  1 11  1  0
  2  3  1  0
  3  4  1  0
  3  7  1  0
  4  9  2  0
  4  5  1  0
  5  6  1  0
  5  8  1  0
  6 10  2  0
  8 13  1  0
 11 12  3  0
 16 19  1  0
 13 20  1  0
 20 21  1  0
 25 26  1  0
 26 28  2  0
 21 22  2  0
 22 23  1  0
 23 24  2  0
 24 25  1  0
 25 27  2  0
 27 21  1  0
  7 18  2  0
 18 17  1  0
 17 16  2  0
 16 15  1  0
 15 14  2  0
 14  7  1  0
M  END

$$$$
No_144-gen_results_new/Mpro_initial_molecule_p3/2024-06-19-20-31-25/
     RDKit          3D

 28 30  0  0  0  0  0  0  0  0999 V2000
  -10.3383   15.1532   67.5971 C   0  0  0  0  0  0  0  0  0  0  0  0
  -10.7220   15.1619   68.8301 N   0  0  0  0  0  0  0  0  0  0  0  0
  -10.4044   16.2024   69.6852 N   0  0  0  0  0  0  0  0  0  0  0  0
   -9.7271   17.3221   69.2607 C   0  0  0  0  0  0  0  0  0  0  0  0
   -9.3095   17.3212   67.9557 N   0  0  0  0  0  0  0  0  0  0  0  0
   -9.5450   16.2958   67.0814 C   0  0  0  0  0  0  0  0  0  0  0  0
  -10.8644   16.0907   71.0374 C   0  0  0  0  0  0  0  0  0  0  0  0
   -8.5330   18.4792   67.4604 C   0  0  0  0  0  0  0  0  0  0  0  0
   -9.5433   18.2987   69.9938 O   0  0  0  0  0  0  0  0  0  0  0  0
   -9.1481   16.2876   65.9124 O   0  0  0  0  0  0  0  0  0  0  0  0
  -10.7304   14.0247   66.8209 C   0  0  0  0  0  0  0  0  0  0  0  0
  -11.1003   13.0895   66.2465 N   0  0  0  0  0  0  0  0  0  0  0  0
   -7.0275   18.2876   67.7219 C   0  0  0  0  0  0  0  0  0  0  0  0
  -10.0126   16.3511   72.1395 C   0  0  0  0  0  0  0  0  0  0  0  0
  -10.4883   16.2212   73.4591 C   0  0  0  0  0  0  0  0  0  0  0  0
  -11.8103   15.8022   73.6966 C   0  0  0  0  0  0  0  0  0  0  0  0
  -12.6594   15.5153   72.6113 C   0  0  0  0  0  0  0  0  0  0  0  0
  -12.1896   15.6561   71.2886 C   0  0  0  0  0  0  0  0  0  0  0  0
  -12.2768   15.6000   75.1088 C   0  0  0  0  0  0  0  0  0  0  0  0
   -6.5341   17.3729   68.3685 C   0  0  0  0  0  0  0  0  0  0  0  0
   -5.1308   17.1882   68.5568 C   0  0  0  0  0  0  0  0  0  0  0  0
   -6.2282   19.1886   66.9092 C   0  0  0  0  0  0  0  0  0  0  0  0
   -4.8273   19.0035   67.0391 C   0  0  0  0  0  0  0  0  0  0  0  0
   -4.3060   18.0195   67.7979 C   0  0  0  0  0  0  0  0  0  0  0  0
  -12.5817   16.5942   75.6961 O   0  0  0  0  0  0  0  0  0  0  0  0
  -12.1192   14.5199   75.5992 O   0  0  0  0  0  0  0  0  0  0  0  0
   -6.7628   20.1608   66.1398 F   0  0  0  0  0  0  0  0  0  0  0  0
   -4.6458   16.1641   69.3390 F   0  0  0  0  0  0  0  0  0  0  0  0
  1  2  2  0
  1  6  1  0
  1 11  1  0
  2  3  1  0
  3  4  1  0
  3  7  1  0
  4  9  2  0
  4  5  1  0
  5  6  1  0
  5  8  1  0
  6 10  2  0
  8 13  1  0
 11 12  3  0
 16 19  1  0
 19 25  2  0
 19 26  1  0
 22 27  1  0
 21 28  1  0
 13 20  2  0
 20 21  1  0
 21 24  2  0
 24 23  1  0
 23 22  2  0
 22 13  1  0
  7 18  2  0
 18 17  1  0
 17 16  2  0
 16 15  1  0
 15 14  2  0
 14  7  1  0
M  END

$$$$
No_145-gen_results_new/Mpro_initial_molecule_p3/2024-06-19-20-31-25/
     RDKit          3D

 23 25  0  0  0  0  0  0  0  0999 V2000
  -10.3383   15.1532   67.5971 C   0  0  0  0  0  0  0  0  0  0  0  0
  -10.7220   15.1619   68.8301 N   0  0  0  0  0  0  0  0  0  0  0  0
  -10.4044   16.2024   69.6852 N   0  0  0  0  0  0  0  0  0  0  0  0
   -9.7271   17.3221   69.2607 C   0  0  0  0  0  0  0  0  0  0  0  0
   -9.3095   17.3212   67.9557 N   0  0  0  0  0  0  0  0  0  0  0  0
   -9.5450   16.2958   67.0814 C   0  0  0  0  0  0  0  0  0  0  0  0
  -10.8644   16.0907   71.0374 C   0  0  0  0  0  0  0  0  0  0  0  0
   -8.5330   18.4792   67.4604 C   0  0  0  0  0  0  0  0  0  0  0  0
   -9.5433   18.2987   69.9938 O   0  0  0  0  0  0  0  0  0  0  0  0
   -9.1481   16.2876   65.9124 O   0  0  0  0  0  0  0  0  0  0  0  0
  -10.7304   14.0247   66.8209 C   0  0  0  0  0  0  0  0  0  0  0  0
  -11.1003   13.0895   66.2465 N   0  0  0  0  0  0  0  0  0  0  0  0
   -7.0275   18.2876   67.7219 C   0  0  0  0  0  0  0  0  0  0  0  0
  -10.0126   16.3511   72.1395 C   0  0  0  0  0  0  0  0  0  0  0  0
  -10.4883   16.2212   73.4591 C   0  0  0  0  0  0  0  0  0  0  0  0
  -11.8103   15.8022   73.6966 C   0  0  0  0  0  0  0  0  0  0  0  0
  -12.6594   15.5153   72.6113 C   0  0  0  0  0  0  0  0  0  0  0  0
  -12.1896   15.6561   71.2886 C   0  0  0  0  0  0  0  0  0  0  0  0
  -12.3998   15.5587   75.4931 Br  0  0  0  0  0  0  0  0  0  0  0  0
   -6.3057   19.3591   66.9157 C   0  0  0  0  0  0  0  0  0  0  0  0
   -6.9568   20.4797   66.4330 C   0  0  0  0  0  0  0  0  0  0  0  0
   -8.3124   20.5664   66.3806 N   0  0  0  0  0  0  0  0  0  0  0  0
   -9.1315   19.5292   66.8374 C   0  0  0  0  0  0  0  0  0  0  0  0
  1  2  2  0
  1  6  1  0
  1 11  1  0
  2  3  1  0
  3  4  1  0
  3  7  1  0
  4  9  2  0
  4  5  1  0
  5  6  1  0
  5  8  1  0
  6 10  2  0
 11 12  3  0
 16 19  1  0
  8 13  2  0
 13 20  1  0
 20 21  2  0
 21 22  1  0
 22 23  2  0
 23  8  1  0
  7 18  2  0
 18 17  1  0
 17 16  2  0
 16 15  1  0
 15 14  2  0
 14  7  1  0
M  END

$$$$
No_146-gen_results_new/Mpro_initial_molecule_p3/2024-06-19-20-31-25/
     RDKit          3D

 27 29  0  0  0  0  0  0  0  0999 V2000
  -10.3383   15.1532   67.5971 C   0  0  0  0  0  0  0  0  0  0  0  0
  -10.7220   15.1619   68.8301 N   0  0  0  0  0  0  0  0  0  0  0  0
  -10.4044   16.2024   69.6852 N   0  0  0  0  0  0  0  0  0  0  0  0
   -9.7271   17.3221   69.2607 C   0  0  0  0  0  0  0  0  0  0  0  0
   -9.3095   17.3212   67.9557 N   0  0  0  0  0  0  0  0  0  0  0  0
   -9.5450   16.2958   67.0814 C   0  0  0  0  0  0  0  0  0  0  0  0
  -10.8644   16.0907   71.0374 C   0  0  0  0  0  0  0  0  0  0  0  0
   -8.5330   18.4792   67.4604 C   0  0  0  0  0  0  0  0  0  0  0  0
   -9.5433   18.2987   69.9938 O   0  0  0  0  0  0  0  0  0  0  0  0
   -9.1481   16.2876   65.9124 O   0  0  0  0  0  0  0  0  0  0  0  0
  -10.7304   14.0247   66.8209 C   0  0  0  0  0  0  0  0  0  0  0  0
  -11.1003   13.0895   66.2465 N   0  0  0  0  0  0  0  0  0  0  0  0
   -7.0275   18.2876   67.7219 C   0  0  0  0  0  0  0  0  0  0  0  0
  -10.0126   16.3511   72.1395 C   0  0  0  0  0  0  0  0  0  0  0  0
  -10.4883   16.2212   73.4591 C   0  0  0  0  0  0  0  0  0  0  0  0
  -11.8103   15.8022   73.6966 C   0  0  0  0  0  0  0  0  0  0  0  0
  -12.6594   15.5153   72.6113 C   0  0  0  0  0  0  0  0  0  0  0  0
  -12.1896   15.6561   71.2886 C   0  0  0  0  0  0  0  0  0  0  0  0
  -12.3486   15.5799   75.3255 Cl  0  0  0  0  0  0  0  0  0  0  0  0
   -6.4523   19.3079   67.8835 C   0  0  0  0  0  0  0  0  0  0  0  0
   -6.2032   19.5449   69.0280 C   0  0  0  0  0  0  0  0  0  0  0  0
   -5.0283   20.3340   69.5330 C   0  0  0  0  0  0  0  0  0  0  0  0
   -4.1491   20.7182   68.5748 C   0  0  0  0  0  0  0  0  0  0  0  0
   -4.2143   20.2842   67.2305 C   0  0  0  0  0  0  0  0  0  0  0  0
   -5.3299   19.5322   66.8708 C   0  0  0  0  0  0  0  0  0  0  0  0
   -3.2849   20.7488   66.1802 C   0  0  0  0  0  0  0  0  0  0  0  0
   -3.5660   20.3229   64.9233 C   0  0  0  0  0  0  0  0  0  0  0  0
  1  2  2  0
  1  6  1  0
  1 11  1  0
  2  3  1  0
  3  4  1  0
  3  7  1  0
  4  9  2  0
  4  5  1  0
  5  6  1  0
  5  8  1  0
  6 10  2  0
  8 13  1  0
 11 12  3  0
 16 19  1  0
 13 20  1  0
 24 26  1  0
 26 27  2  0
 20 21  2  0
 21 22  1  0
 22 23  2  0
 23 24  1  0
 24 25  2  0
 25 20  1  0
  7 18  2  0
 18 17  1  0
 17 16  2  0
 16 15  1  0
 15 14  2  0
 14  7  1  0
M  END

$$$$
No_147-gen_results_new/Mpro_initial_molecule_p3/2024-06-19-20-31-25/
     RDKit          3D

 28 30  0  0  0  0  0  0  0  0999 V2000
  -10.3383   15.1532   67.5971 C   0  0  0  0  0  0  0  0  0  0  0  0
  -10.7220   15.1619   68.8301 N   0  0  0  0  0  0  0  0  0  0  0  0
  -10.4044   16.2024   69.6852 N   0  0  0  0  0  0  0  0  0  0  0  0
   -9.7271   17.3221   69.2607 C   0  0  0  0  0  0  0  0  0  0  0  0
   -9.3095   17.3212   67.9557 N   0  0  0  0  0  0  0  0  0  0  0  0
   -9.5450   16.2958   67.0814 C   0  0  0  0  0  0  0  0  0  0  0  0
  -10.8644   16.0907   71.0374 C   0  0  0  0  0  0  0  0  0  0  0  0
   -8.5330   18.4792   67.4604 C   0  0  0  0  0  0  0  0  0  0  0  0
   -9.5433   18.2987   69.9938 O   0  0  0  0  0  0  0  0  0  0  0  0
   -9.1481   16.2876   65.9124 O   0  0  0  0  0  0  0  0  0  0  0  0
  -10.7304   14.0247   66.8209 C   0  0  0  0  0  0  0  0  0  0  0  0
  -11.1003   13.0895   66.2465 N   0  0  0  0  0  0  0  0  0  0  0  0
   -7.0275   18.2876   67.7219 C   0  0  0  0  0  0  0  0  0  0  0  0
  -10.0126   16.3511   72.1395 C   0  0  0  0  0  0  0  0  0  0  0  0
  -10.4883   16.2212   73.4591 C   0  0  0  0  0  0  0  0  0  0  0  0
  -11.8103   15.8022   73.6966 C   0  0  0  0  0  0  0  0  0  0  0  0
  -12.6594   15.5153   72.6113 C   0  0  0  0  0  0  0  0  0  0  0  0
  -12.1896   15.6561   71.2886 C   0  0  0  0  0  0  0  0  0  0  0  0
  -12.3486   15.5799   75.3255 Cl  0  0  0  0  0  0  0  0  0  0  0  0
   -6.4523   19.3079   67.8835 C   0  0  0  0  0  0  0  0  0  0  0  0
   -6.2032   19.5449   69.0280 C   0  0  0  0  0  0  0  0  0  0  0  0
   -5.6840   18.3857   69.7844 C   0  0  0  0  0  0  0  0  0  0  0  0
   -6.2430   17.0342   69.3917 C   0  0  0  0  0  0  0  0  0  0  0  0
   -5.9299   15.8902   70.2329 C   0  0  0  0  0  0  0  0  0  0  0  0
   -6.8844   17.0377   68.3166 C   0  0  0  0  0  0  0  0  0  0  0  0
   -5.2969   15.0948   69.9554 O   0  0  0  0  0  0  0  0  0  0  0  0
   -6.3365   15.9136   71.5707 O   0  0  0  0  0  0  0  0  0  0  0  0
   -6.6393   20.5454   67.0948 N   0  0  0  0  0  0  0  0  0  0  0  0
  1  2  2  0
  1  6  1  0
  1 11  1  0
  2  3  1  0
  3  4  1  0
  3  7  1  0
  4  9  2  0
  4  5  1  0
  5  6  1  0
  5  8  1  0
  6 10  2  0
  8 13  1  0
 11 12  3  0
 16 19  1  0
 23 24  1  0
 24 26  2  0
 24 27  1  0
 20 28  1  0
 13 20  2  0
 20 21  1  0
 21 22  2  0
 22 23  1  0
 23 25  2  0
 25 13  1  0
  7 18  2  0
 18 17  1  0
 17 16  2  0
 16 15  1  0
 15 14  2  0
 14  7  1  0
M  END

$$$$
No_148-gen_results_new/Mpro_initial_molecule_p3/2024-06-19-20-31-25/
     RDKit          3D

 28 30  0  0  0  0  0  0  0  0999 V2000
  -10.3383   15.1532   67.5971 C   0  0  0  0  0  0  0  0  0  0  0  0
  -10.7220   15.1619   68.8301 N   0  0  0  0  0  0  0  0  0  0  0  0
  -10.4044   16.2024   69.6852 N   0  0  0  0  0  0  0  0  0  0  0  0
   -9.7271   17.3221   69.2607 C   0  0  0  0  0  0  0  0  0  0  0  0
   -9.3095   17.3212   67.9557 N   0  0  0  0  0  0  0  0  0  0  0  0
   -9.5450   16.2958   67.0814 C   0  0  0  0  0  0  0  0  0  0  0  0
  -10.8644   16.0907   71.0374 C   0  0  0  0  0  0  0  0  0  0  0  0
   -8.5330   18.4792   67.4604 C   0  0  0  0  0  0  0  0  0  0  0  0
   -9.5433   18.2987   69.9938 O   0  0  0  0  0  0  0  0  0  0  0  0
   -9.1481   16.2876   65.9124 O   0  0  0  0  0  0  0  0  0  0  0  0
  -10.7304   14.0247   66.8209 C   0  0  0  0  0  0  0  0  0  0  0  0
  -11.1003   13.0895   66.2465 N   0  0  0  0  0  0  0  0  0  0  0  0
   -7.0275   18.2876   67.7219 C   0  0  0  0  0  0  0  0  0  0  0  0
  -10.0126   16.3511   72.1395 C   0  0  0  0  0  0  0  0  0  0  0  0
  -10.4883   16.2212   73.4591 C   0  0  0  0  0  0  0  0  0  0  0  0
  -11.8103   15.8022   73.6966 C   0  0  0  0  0  0  0  0  0  0  0  0
  -12.6594   15.5153   72.6113 C   0  0  0  0  0  0  0  0  0  0  0  0
  -12.1896   15.6561   71.2886 C   0  0  0  0  0  0  0  0  0  0  0  0
  -12.2484   15.6088   75.0145 O   0  0  0  0  0  0  0  0  0  0  0  0
   -6.5341   17.3731   68.3686 C   0  0  0  0  0  0  0  0  0  0  0  0
   -5.1247   17.1828   68.5818 C   0  0  0  0  0  0  0  0  0  0  0  0
   -4.4393   18.0516   67.8375 C   0  0  0  0  0  0  0  0  0  0  0  0
   -4.8689   19.0477   67.0691 C   0  0  0  0  0  0  0  0  0  0  0  0
   -6.2627   19.1642   66.9258 C   0  0  0  0  0  0  0  0  0  0  0  0
  -12.3371   16.7920   75.7212 C   0  0  0  0  0  0  0  0  0  0  0  0
  -13.9744   14.9540   72.7919 O   0  0  0  0  0  0  0  0  0  0  0  0
   -4.0873   19.9303   66.3670 O   0  0  0  0  0  0  0  0  0  0  0  0
   -3.9626   20.0656   65.2710 C   0  0  0  0  0  0  0  0  0  0  0  0
  1  2  2  0
  1  6  1  0
  1 11  1  0
  2  3  1  0
  3  4  1  0
  3  7  1  0
  4  9  2  0
  4  5  1  0
  5  6  1  0
  5  8  1  0
  6 10  2  0
  8 13  1  0
 11 12  3  0
 16 19  1  0
 19 25  1  0
 17 26  1  0
 23 27  1  0
 27 28  1  0
 13 20  2  0
 20 21  1  0
 21 22  2  0
 22 23  1  0
 23 24  2  0
 24 13  1  0
  7 18  2  0
 18 17  1  0
 17 16  2  0
 16 15  1  0
 15 14  2  0
 14  7  1  0
M  END

$$$$
No_149-gen_results_new/Mpro_initial_molecule_p3/2024-06-19-20-31-25/
     RDKit          3D

 28 30  0  0  0  0  0  0  0  0999 V2000
  -10.3383   15.1532   67.5971 C   0  0  0  0  0  0  0  0  0  0  0  0
  -10.7220   15.1619   68.8301 N   0  0  0  0  0  0  0  0  0  0  0  0
  -10.4044   16.2024   69.6852 N   0  0  0  0  0  0  0  0  0  0  0  0
   -9.7271   17.3221   69.2607 C   0  0  0  0  0  0  0  0  0  0  0  0
   -9.3095   17.3212   67.9557 N   0  0  0  0  0  0  0  0  0  0  0  0
   -9.5450   16.2958   67.0814 C   0  0  0  0  0  0  0  0  0  0  0  0
  -10.8644   16.0907   71.0374 C   0  0  0  0  0  0  0  0  0  0  0  0
   -8.5330   18.4792   67.4604 C   0  0  0  0  0  0  0  0  0  0  0  0
   -9.5433   18.2987   69.9938 O   0  0  0  0  0  0  0  0  0  0  0  0
   -9.1481   16.2876   65.9124 O   0  0  0  0  0  0  0  0  0  0  0  0
  -10.7304   14.0247   66.8209 C   0  0  0  0  0  0  0  0  0  0  0  0
  -11.1003   13.0895   66.2465 N   0  0  0  0  0  0  0  0  0  0  0  0
   -7.0275   18.2876   67.7219 C   0  0  0  0  0  0  0  0  0  0  0  0
  -10.0126   16.3511   72.1395 C   0  0  0  0  0  0  0  0  0  0  0  0
  -10.4883   16.2212   73.4591 C   0  0  0  0  0  0  0  0  0  0  0  0
  -11.8103   15.8022   73.6966 C   0  0  0  0  0  0  0  0  0  0  0  0
  -12.6594   15.5153   72.6113 C   0  0  0  0  0  0  0  0  0  0  0  0
  -12.1896   15.6561   71.2886 C   0  0  0  0  0  0  0  0  0  0  0  0
  -12.2484   15.6088   75.0145 O   0  0  0  0  0  0  0  0  0  0  0  0
   -6.5341   17.3731   68.3686 C   0  0  0  0  0  0  0  0  0  0  0  0
   -5.1247   17.1828   68.5818 C   0  0  0  0  0  0  0  0  0  0  0  0
   -4.4393   18.0516   67.8375 C   0  0  0  0  0  0  0  0  0  0  0  0
   -4.8689   19.0477   67.0691 C   0  0  0  0  0  0  0  0  0  0  0  0
   -6.2627   19.1642   66.9258 C   0  0  0  0  0  0  0  0  0  0  0  0
  -11.8770   16.5247   75.9059 C   0  0  0  0  0  0  0  0  0  0  0  0
  -13.9495   14.9663   72.7833 F   0  0  0  0  0  0  0  0  0  0  0  0
   -4.1150   19.9054   66.3812 F   0  0  0  0  0  0  0  0  0  0  0  0
   -2.9987   17.9723   67.9610 O   0  0  0  0  0  0  0  0  0  0  0  0
  1  2  2  0
  1  6  1  0
  1 11  1  0
  2  3  1  0
  3  4  1  0
  3  7  1  0
  4  9  2  0
  4  5  1  0
  5  6  1  0
  5  8  1  0
  6 10  2  0
  8 13  1  0
 11 12  3  0
 16 19  1  0
 19 25  1  0
 17 26  1  0
 23 27  1  0
 22 28  1  0
 13 20  2  0
 20 21  1  0
 21 22  2  0
 22 23  1  0
 23 24  2  0
 24 13  1  0
  7 18  2  0
 18 17  1  0
 17 16  2  0
 16 15  1  0
 15 14  2  0
 14  7  1  0
M  END

$$$$
No_150-gen_results_new/Mpro_initial_molecule_p3/2024-06-19-20-31-25/
     RDKit          3D

 28 30  0  0  0  0  0  0  0  0999 V2000
  -10.3383   15.1532   67.5971 C   0  0  0  0  0  0  0  0  0  0  0  0
  -10.7220   15.1619   68.8301 N   0  0  0  0  0  0  0  0  0  0  0  0
  -10.4044   16.2024   69.6852 N   0  0  0  0  0  0  0  0  0  0  0  0
   -9.7271   17.3221   69.2607 C   0  0  0  0  0  0  0  0  0  0  0  0
   -9.3095   17.3212   67.9557 N   0  0  0  0  0  0  0  0  0  0  0  0
   -9.5450   16.2958   67.0814 C   0  0  0  0  0  0  0  0  0  0  0  0
  -10.8644   16.0907   71.0374 C   0  0  0  0  0  0  0  0  0  0  0  0
   -8.5330   18.4792   67.4604 C   0  0  0  0  0  0  0  0  0  0  0  0
   -9.5433   18.2987   69.9938 O   0  0  0  0  0  0  0  0  0  0  0  0
   -9.1481   16.2876   65.9124 O   0  0  0  0  0  0  0  0  0  0  0  0
  -10.7304   14.0247   66.8209 C   0  0  0  0  0  0  0  0  0  0  0  0
  -11.1003   13.0895   66.2465 N   0  0  0  0  0  0  0  0  0  0  0  0
   -7.0275   18.2876   67.7219 C   0  0  0  0  0  0  0  0  0  0  0  0
  -10.0126   16.3511   72.1395 C   0  0  0  0  0  0  0  0  0  0  0  0
  -10.4883   16.2212   73.4591 C   0  0  0  0  0  0  0  0  0  0  0  0
  -11.8103   15.8022   73.6966 C   0  0  0  0  0  0  0  0  0  0  0  0
  -12.6594   15.5153   72.6113 C   0  0  0  0  0  0  0  0  0  0  0  0
  -12.1896   15.6561   71.2886 C   0  0  0  0  0  0  0  0  0  0  0  0
  -12.2768   15.6000   75.1088 C   0  0  0  0  0  0  0  0  0  0  0  0
   -6.5341   17.3729   68.3685 C   0  0  0  0  0  0  0  0  0  0  0  0
   -5.1249   17.1827   68.5818 C   0  0  0  0  0  0  0  0  0  0  0  0
   -4.4393   18.0516   67.8378 C   0  0  0  0  0  0  0  0  0  0  0  0
   -2.7582   17.9306   67.9009 Cl  0  0  0  0  0  0  0  0  0  0  0  0
   -6.2004   19.1424   67.0343 C   0  0  0  0  0  0  0  0  0  0  0  0
   -4.8859   19.0949   67.1103 C   0  0  0  0  0  0  0  0  0  0  0  0
  -12.5822   16.5938   75.6961 O   0  0  0  0  0  0  0  0  0  0  0  0
  -12.1191   14.5198   75.5992 O   0  0  0  0  0  0  0  0  0  0  0  0
  -14.0777   14.9560   72.8079 C   0  0  0  0  0  0  0  0  0  0  0  0
  1  2  2  0
  1  6  1  0
  1 11  1  0
  2  3  1  0
  3  4  1  0
  3  7  1  0
  4  9  2  0
  4  5  1  0
  5  6  1  0
  5  8  1  0
  6 10  2  0
  8 13  1  0
 11 12  3  0
 16 19  1  0
 22 23  1  0
 19 26  2  0
 19 27  1  0
 17 28  1  0
 13 20  2  0
 20 21  1  0
 21 22  2  0
 22 25  1  0
 25 24  2  0
 24 13  1  0
  7 18  2  0
 18 17  1  0
 17 16  2  0
 16 15  1  0
 15 14  2  0
 14  7  1  0
M  END

$$$$
No_151-gen_results_new/Mpro_initial_molecule_p3/2024-06-19-20-31-25/
     RDKit          3D

 28 30  0  0  0  0  0  0  0  0999 V2000
  -10.3383   15.1532   67.5971 C   0  0  0  0  0  0  0  0  0  0  0  0
  -10.7220   15.1619   68.8301 N   0  0  0  0  0  0  0  0  0  0  0  0
  -10.4044   16.2024   69.6852 N   0  0  0  0  0  0  0  0  0  0  0  0
   -9.7271   17.3221   69.2607 C   0  0  0  0  0  0  0  0  0  0  0  0
   -9.3095   17.3212   67.9557 N   0  0  0  0  0  0  0  0  0  0  0  0
   -9.5450   16.2958   67.0814 C   0  0  0  0  0  0  0  0  0  0  0  0
  -10.8644   16.0907   71.0374 C   0  0  0  0  0  0  0  0  0  0  0  0
   -8.5330   18.4792   67.4604 C   0  0  0  0  0  0  0  0  0  0  0  0
   -9.5433   18.2987   69.9938 O   0  0  0  0  0  0  0  0  0  0  0  0
   -9.1481   16.2876   65.9124 O   0  0  0  0  0  0  0  0  0  0  0  0
  -10.7304   14.0247   66.8209 C   0  0  0  0  0  0  0  0  0  0  0  0
  -11.1003   13.0895   66.2465 N   0  0  0  0  0  0  0  0  0  0  0  0
   -7.0275   18.2876   67.7219 C   0  0  0  0  0  0  0  0  0  0  0  0
  -10.0126   16.3511   72.1395 C   0  0  0  0  0  0  0  0  0  0  0  0
  -10.4883   16.2212   73.4591 C   0  0  0  0  0  0  0  0  0  0  0  0
  -11.8103   15.8022   73.6966 C   0  0  0  0  0  0  0  0  0  0  0  0
  -12.6594   15.5153   72.6113 C   0  0  0  0  0  0  0  0  0  0  0  0
  -12.1896   15.6561   71.2886 C   0  0  0  0  0  0  0  0  0  0  0  0
  -12.2484   15.6088   75.0145 O   0  0  0  0  0  0  0  0  0  0  0  0
   -6.3059   19.3591   66.9155 C   0  0  0  0  0  0  0  0  0  0  0  0
   -4.9923   19.4463   66.9703 C   0  0  0  0  0  0  0  0  0  0  0  0
   -4.2717   18.3411   67.6555 C   0  0  0  0  0  0  0  0  0  0  0  0
   -5.0436   17.2562   68.3053 C   0  0  0  0  0  0  0  0  0  0  0  0
   -6.4249   17.2341   68.1852 C   0  0  0  0  0  0  0  0  0  0  0  0
  -11.8786   16.5249   75.9061 C   0  0  0  0  0  0  0  0  0  0  0  0
   -4.2785   20.3499   66.4190 O   0  0  0  0  0  0  0  0  0  0  0  0
   -3.0188   20.3860   66.3292 C   0  0  0  0  0  0  0  0  0  0  0  0
  -14.3049   14.8141   72.8372 Cl  0  0  0  0  0  0  0  0  0  0  0  0
  1  2  2  0
  1  6  1  0
  1 11  1  0
  2  3  1  0
  3  4  1  0
  3  7  1  0
  4  9  2  0
  4  5  1  0
  5  6  1  0
  5  8  1  0
  6 10  2  0
  8 13  1  0
 11 12  3  0
 16 19  1  0
 19 25  1  0
 21 26  1  0
 26 27  1  0
 17 28  1  0
 13 20  2  0
 20 21  1  0
 21 22  2  0
 22 23  1  0
 23 24  2  0
 24 13  1  0
  7 18  2  0
 18 17  1  0
 17 16  2  0
 16 15  1  0
 15 14  2  0
 14  7  1  0
M  END

$$$$
No_152-gen_results_new/Mpro_initial_molecule_p3/2024-06-19-20-31-25/
     RDKit          3D

 28 30  0  0  0  0  0  0  0  0999 V2000
  -10.3383   15.1532   67.5971 C   0  0  0  0  0  0  0  0  0  0  0  0
  -10.7220   15.1619   68.8301 N   0  0  0  0  0  0  0  0  0  0  0  0
  -10.4044   16.2024   69.6852 N   0  0  0  0  0  0  0  0  0  0  0  0
   -9.7271   17.3221   69.2607 C   0  0  0  0  0  0  0  0  0  0  0  0
   -9.3095   17.3212   67.9557 N   0  0  0  0  0  0  0  0  0  0  0  0
   -9.5450   16.2958   67.0814 C   0  0  0  0  0  0  0  0  0  0  0  0
  -10.8644   16.0907   71.0374 C   0  0  0  0  0  0  0  0  0  0  0  0
   -8.5330   18.4792   67.4604 C   0  0  0  0  0  0  0  0  0  0  0  0
   -9.5433   18.2987   69.9938 O   0  0  0  0  0  0  0  0  0  0  0  0
   -9.1481   16.2876   65.9124 O   0  0  0  0  0  0  0  0  0  0  0  0
  -10.7304   14.0247   66.8209 C   0  0  0  0  0  0  0  0  0  0  0  0
  -11.1003   13.0895   66.2465 N   0  0  0  0  0  0  0  0  0  0  0  0
   -7.0275   18.2876   67.7219 C   0  0  0  0  0  0  0  0  0  0  0  0
  -10.0126   16.3511   72.1395 C   0  0  0  0  0  0  0  0  0  0  0  0
  -10.4883   16.2212   73.4591 C   0  0  0  0  0  0  0  0  0  0  0  0
  -11.8103   15.8022   73.6966 C   0  0  0  0  0  0  0  0  0  0  0  0
  -12.6594   15.5153   72.6113 C   0  0  0  0  0  0  0  0  0  0  0  0
  -12.1896   15.6561   71.2886 C   0  0  0  0  0  0  0  0  0  0  0  0
  -12.2768   15.6000   75.1088 C   0  0  0  0  0  0  0  0  0  0  0  0
   -6.4522   19.3092   67.8826 C   0  0  0  0  0  0  0  0  0  0  0  0
  -11.9582   16.3232   75.9332 O   0  0  0  0  0  0  0  0  0  0  0  0
   -6.3602   20.4039   67.0238 C   0  0  0  0  0  0  0  0  0  0  0  0
   -5.2063   21.2025   66.8601 C   0  0  0  0  0  0  0  0  0  0  0  0
   -4.2856   21.1402   67.9277 C   0  0  0  0  0  0  0  0  0  0  0  0
   -4.2411   19.9874   68.8485 C   0  0  0  0  0  0  0  0  0  0  0  0
   -5.3012   19.1116   68.8616 C   0  0  0  0  0  0  0  0  0  0  0  0
  -12.4643   14.3689   75.4151 O   0  0  0  0  0  0  0  0  0  0  0  0
   -3.2350   19.9382   69.8236 O   0  0  0  0  0  0  0  0  0  0  0  0
  1  2  2  0
  1  6  1  0
  1 11  1  0
  2  3  1  0
  3  4  1  0
  3  7  1  0
  4  9  2  0
  4  5  1  0
  5  6  1  0
  5  8  1  0
  6 10  2  0
  8 13  1  0
 11 12  3  0
 16 19  1  0
 13 20  1  0
 19 21  2  0
 19 27  1  0
 25 28  1  0
  7 18  2  0
 18 17  1  0
 17 16  2  0
 16 15  1  0
 15 14  2  0
 14  7  1  0
 20 22  2  0
 22 23  1  0
 23 24  2  0
 24 25  1  0
 25 26  2  0
 26 20  1  0
M  END

$$$$
No_153-gen_results_new/Mpro_initial_molecule_p3/2024-06-19-20-31-25/
     RDKit          3D

 28 30  0  0  0  0  0  0  0  0999 V2000
  -10.3383   15.1532   67.5971 C   0  0  0  0  0  0  0  0  0  0  0  0
  -10.7220   15.1619   68.8301 N   0  0  0  0  0  0  0  0  0  0  0  0
  -10.4044   16.2024   69.6852 N   0  0  0  0  0  0  0  0  0  0  0  0
   -9.7271   17.3221   69.2607 C   0  0  0  0  0  0  0  0  0  0  0  0
   -9.3095   17.3212   67.9557 N   0  0  0  0  0  0  0  0  0  0  0  0
   -9.5450   16.2958   67.0814 C   0  0  0  0  0  0  0  0  0  0  0  0
  -10.8644   16.0907   71.0374 C   0  0  0  0  0  0  0  0  0  0  0  0
   -8.5330   18.4792   67.4604 C   0  0  0  0  0  0  0  0  0  0  0  0
   -9.5433   18.2987   69.9938 O   0  0  0  0  0  0  0  0  0  0  0  0
   -9.1481   16.2876   65.9124 O   0  0  0  0  0  0  0  0  0  0  0  0
  -10.7304   14.0247   66.8209 C   0  0  0  0  0  0  0  0  0  0  0  0
  -11.1003   13.0895   66.2465 N   0  0  0  0  0  0  0  0  0  0  0  0
   -7.0275   18.2876   67.7219 C   0  0  0  0  0  0  0  0  0  0  0  0
  -10.0126   16.3511   72.1395 C   0  0  0  0  0  0  0  0  0  0  0  0
  -10.4883   16.2212   73.4591 C   0  0  0  0  0  0  0  0  0  0  0  0
  -11.8103   15.8022   73.6966 C   0  0  0  0  0  0  0  0  0  0  0  0
  -12.6594   15.5153   72.6113 C   0  0  0  0  0  0  0  0  0  0  0  0
  -12.1896   15.6561   71.2886 C   0  0  0  0  0  0  0  0  0  0  0  0
  -12.2484   15.6088   75.0145 O   0  0  0  0  0  0  0  0  0  0  0  0
   -6.3059   19.3591   66.9155 C   0  0  0  0  0  0  0  0  0  0  0  0
   -4.9923   19.4463   66.9703 C   0  0  0  0  0  0  0  0  0  0  0  0
   -4.2907   20.4330   66.2898 C   0  0  0  0  0  0  0  0  0  0  0  0
   -4.9709   21.5154   65.8584 C   0  0  0  0  0  0  0  0  0  0  0  0
   -6.3875   21.4522   65.7832 C   0  0  0  0  0  0  0  0  0  0  0  0
   -7.0587   20.4371   66.3781 C   0  0  0  0  0  0  0  0  0  0  0  0
   -4.1822   22.5427   65.2043 N   0  0  0  0  0  0  0  0  0  0  0  0
  -12.3386   16.7900   75.7237 C   0  0  0  0  0  0  0  0  0  0  0  0
  -13.9748   14.9549   72.7920 O   0  0  0  0  0  0  0  0  0  0  0  0
  1  2  2  0
  1  6  1  0
  1 11  1  0
  2  3  1  0
  3  4  1  0
  3  7  1  0
  4  9  2  0
  4  5  1  0
  5  6  1  0
  5  8  1  0
  6 10  2  0
  8 13  1  0
 11 12  3  0
 16 19  1  0
 13 20  1  0
 23 26  1  0
 19 27  1  0
 17 28  1  0
 20 21  2  0
 21 22  1  0
 22 23  2  0
 23 24  1  0
 24 25  2  0
 25 20  1  0
  7 18  2  0
 18 17  1  0
 17 16  2  0
 16 15  1  0
 15 14  2  0
 14  7  1  0
M  END

$$$$
No_154-gen_results_new/Mpro_initial_molecule_p3/2024-06-19-20-31-25/
     RDKit          3D

 28 30  0  0  0  0  0  0  0  0999 V2000
  -10.3383   15.1532   67.5971 C   0  0  0  0  0  0  0  0  0  0  0  0
  -10.7220   15.1619   68.8301 N   0  0  0  0  0  0  0  0  0  0  0  0
  -10.4044   16.2024   69.6852 N   0  0  0  0  0  0  0  0  0  0  0  0
   -9.7271   17.3221   69.2607 C   0  0  0  0  0  0  0  0  0  0  0  0
   -9.3095   17.3212   67.9557 N   0  0  0  0  0  0  0  0  0  0  0  0
   -9.5450   16.2958   67.0814 C   0  0  0  0  0  0  0  0  0  0  0  0
  -10.8644   16.0907   71.0374 C   0  0  0  0  0  0  0  0  0  0  0  0
   -8.5330   18.4792   67.4604 C   0  0  0  0  0  0  0  0  0  0  0  0
   -9.5433   18.2987   69.9938 O   0  0  0  0  0  0  0  0  0  0  0  0
   -9.1481   16.2876   65.9124 O   0  0  0  0  0  0  0  0  0  0  0  0
  -10.7304   14.0247   66.8209 C   0  0  0  0  0  0  0  0  0  0  0  0
  -11.1003   13.0895   66.2465 N   0  0  0  0  0  0  0  0  0  0  0  0
   -7.0275   18.2876   67.7219 C   0  0  0  0  0  0  0  0  0  0  0  0
  -10.0126   16.3511   72.1395 C   0  0  0  0  0  0  0  0  0  0  0  0
  -10.4883   16.2212   73.4591 C   0  0  0  0  0  0  0  0  0  0  0  0
  -11.8103   15.8022   73.6966 C   0  0  0  0  0  0  0  0  0  0  0  0
  -12.6594   15.5153   72.6113 C   0  0  0  0  0  0  0  0  0  0  0  0
  -12.1896   15.6561   71.2886 C   0  0  0  0  0  0  0  0  0  0  0  0
  -12.2768   15.6000   75.1088 C   0  0  0  0  0  0  0  0  0  0  0  0
   -6.5341   17.3729   68.3685 C   0  0  0  0  0  0  0  0  0  0  0  0
   -5.1249   17.1827   68.5818 C   0  0  0  0  0  0  0  0  0  0  0  0
   -4.4393   18.0516   67.8378 C   0  0  0  0  0  0  0  0  0  0  0  0
   -4.8689   19.0478   67.0695 C   0  0  0  0  0  0  0  0  0  0  0  0
   -6.2627   19.1643   66.9261 C   0  0  0  0  0  0  0  0  0  0  0  0
  -12.3528   14.5927   75.5996 O   0  0  0  0  0  0  0  0  0  0  0  0
  -12.2293   16.6684   75.8378 O   0  0  0  0  0  0  0  0  0  0  0  0
  -13.9462   15.0170   72.8215 F   0  0  0  0  0  0  0  0  0  0  0  0
   -3.9998   19.9994   66.3274 C   0  0  0  0  0  0  0  0  0  0  0  0
  1  2  2  0
  1  6  1  0
  1 11  1  0
  2  3  1  0
  3  4  1  0
  3  7  1  0
  4  9  2  0
  4  5  1  0
  5  6  1  0
  5  8  1  0
  6 10  2  0
  8 13  1  0
 11 12  3  0
 16 19  1  0
 19 25  2  0
 19 26  1  0
 17 27  1  0
 23 28  1  0
 13 20  2  0
 20 21  1  0
 21 22  2  0
 22 23  1  0
 23 24  2  0
 24 13  1  0
  7 18  2  0
 18 17  1  0
 17 16  2  0
 16 15  1  0
 15 14  2  0
 14  7  1  0
M  END

$$$$
No_155-gen_results_new/Mpro_initial_molecule_p3/2024-06-19-20-31-25/
     RDKit          3D

 26 28  0  0  0  0  0  0  0  0999 V2000
  -10.3383   15.1532   67.5971 C   0  0  0  0  0  0  0  0  0  0  0  0
  -10.7220   15.1619   68.8301 N   0  0  0  0  0  0  0  0  0  0  0  0
  -10.4044   16.2024   69.6852 N   0  0  0  0  0  0  0  0  0  0  0  0
   -9.7271   17.3221   69.2607 C   0  0  0  0  0  0  0  0  0  0  0  0
   -9.3095   17.3212   67.9557 N   0  0  0  0  0  0  0  0  0  0  0  0
   -9.5450   16.2958   67.0814 C   0  0  0  0  0  0  0  0  0  0  0  0
  -10.8644   16.0907   71.0374 C   0  0  0  0  0  0  0  0  0  0  0  0
   -8.5330   18.4792   67.4604 C   0  0  0  0  0  0  0  0  0  0  0  0
   -9.5433   18.2987   69.9938 O   0  0  0  0  0  0  0  0  0  0  0  0
   -9.1481   16.2876   65.9124 O   0  0  0  0  0  0  0  0  0  0  0  0
  -10.7304   14.0247   66.8209 C   0  0  0  0  0  0  0  0  0  0  0  0
  -11.1003   13.0895   66.2465 N   0  0  0  0  0  0  0  0  0  0  0  0
   -7.0275   18.2876   67.7219 C   0  0  0  0  0  0  0  0  0  0  0  0
  -10.0126   16.3511   72.1395 C   0  0  0  0  0  0  0  0  0  0  0  0
  -10.4883   16.2212   73.4591 C   0  0  0  0  0  0  0  0  0  0  0  0
  -11.8103   15.8022   73.6966 C   0  0  0  0  0  0  0  0  0  0  0  0
  -12.6594   15.5153   72.6113 C   0  0  0  0  0  0  0  0  0  0  0  0
  -12.1896   15.6561   71.2886 C   0  0  0  0  0  0  0  0  0  0  0  0
  -12.3486   15.5799   75.3255 Cl  0  0  0  0  0  0  0  0  0  0  0  0
   -6.4523   19.3079   67.8835 C   0  0  0  0  0  0  0  0  0  0  0  0
   -6.2543   20.3848   67.0158 C   0  0  0  0  0  0  0  0  0  0  0  0
   -7.6328   20.5650   66.3045 C   0  0  0  0  0  0  0  0  0  0  0  0
   -8.7253   19.6105   66.5606 N   0  0  0  0  0  0  0  0  0  0  0  0
   -5.2833   21.3267   66.6911 C   0  0  0  0  0  0  0  0  0  0  0  0
   -4.3546   21.3056   67.4620 O   0  0  0  0  0  0  0  0  0  0  0  0
   -5.2528   21.8340   65.5060 O   0  0  0  0  0  0  0  0  0  0  0  0
  1  2  2  0
  1  6  1  0
  1 11  1  0
  2  3  1  0
  3  4  1  0
  3  7  1  0
  4  9  2  0
  4  5  1  0
  5  6  1  0
  5  8  1  0
  6 10  2  0
 11 12  3  0
 16 19  1  0
 21 24  1  0
 24 25  2  0
 24 26  1  0
  8 13  2  0
 13 20  1  0
 20 21  2  0
 21 22  1  0
 22 23  2  0
 23  8  1  0
  7 18  2  0
 18 17  1  0
 17 16  2  0
 16 15  1  0
 15 14  2  0
 14  7  1  0
M  END

$$$$
No_156-gen_results_new/Mpro_initial_molecule_p3/2024-06-19-20-31-25/
     RDKit          3D

 28 30  0  0  0  0  0  0  0  0999 V2000
  -10.3383   15.1532   67.5971 C   0  0  0  0  0  0  0  0  0  0  0  0
  -10.7220   15.1619   68.8301 N   0  0  0  0  0  0  0  0  0  0  0  0
  -10.4044   16.2024   69.6852 N   0  0  0  0  0  0  0  0  0  0  0  0
   -9.7271   17.3221   69.2607 C   0  0  0  0  0  0  0  0  0  0  0  0
   -9.3095   17.3212   67.9557 N   0  0  0  0  0  0  0  0  0  0  0  0
   -9.5450   16.2958   67.0814 C   0  0  0  0  0  0  0  0  0  0  0  0
  -10.8644   16.0907   71.0374 C   0  0  0  0  0  0  0  0  0  0  0  0
   -8.5330   18.4792   67.4604 C   0  0  0  0  0  0  0  0  0  0  0  0
   -9.5433   18.2987   69.9938 O   0  0  0  0  0  0  0  0  0  0  0  0
   -9.1481   16.2876   65.9124 O   0  0  0  0  0  0  0  0  0  0  0  0
  -10.7304   14.0247   66.8209 C   0  0  0  0  0  0  0  0  0  0  0  0
  -11.1003   13.0895   66.2465 N   0  0  0  0  0  0  0  0  0  0  0  0
   -7.0275   18.2876   67.7219 C   0  0  0  0  0  0  0  0  0  0  0  0
  -10.0126   16.3511   72.1395 C   0  0  0  0  0  0  0  0  0  0  0  0
  -10.4883   16.2212   73.4591 C   0  0  0  0  0  0  0  0  0  0  0  0
  -11.8103   15.8022   73.6966 C   0  0  0  0  0  0  0  0  0  0  0  0
  -12.6594   15.5153   72.6113 C   0  0  0  0  0  0  0  0  0  0  0  0
  -12.1896   15.6561   71.2886 C   0  0  0  0  0  0  0  0  0  0  0  0
  -12.2484   15.6088   75.0145 O   0  0  0  0  0  0  0  0  0  0  0  0
   -6.3059   19.3591   66.9155 C   0  0  0  0  0  0  0  0  0  0  0  0
   -4.9923   19.4463   66.9703 C   0  0  0  0  0  0  0  0  0  0  0  0
   -4.3257   18.5673   67.6994 C   0  0  0  0  0  0  0  0  0  0  0  0
   -5.0302   17.3830   68.4019 C   0  0  0  0  0  0  0  0  0  0  0  0
   -6.4096   17.3542   68.3154 C   0  0  0  0  0  0  0  0  0  0  0  0
  -12.3380   16.7917   75.7214 C   0  0  0  0  0  0  0  0  0  0  0  0
   -4.3369   20.3933   66.3541 O   0  0  0  0  0  0  0  0  0  0  0  0
   -4.8594   21.5501   66.0742 C   0  0  0  0  0  0  0  0  0  0  0  0
   -4.4636   21.8853   64.6129 C   0  0  0  0  0  0  0  0  0  0  0  0
  1  2  2  0
  1  6  1  0
  1 11  1  0
  2  3  1  0
  3  4  1  0
  3  7  1  0
  4  9  2  0
  4  5  1  0
  5  6  1  0
  5  8  1  0
  6 10  2  0
  8 13  1  0
 11 12  3  0
 16 19  1  0
 19 25  1  0
 21 26  1  0
 26 27  1  0
 27 28  1  0
 13 20  2  0
 20 21  1  0
 21 22  2  0
 22 23  1  0
 23 24  2  0
 24 13  1  0
  7 18  2  0
 18 17  1  0
 17 16  2  0
 16 15  1  0
 15 14  2  0
 14  7  1  0
M  END

$$$$
No_157-gen_results_new/Mpro_initial_molecule_p3/2024-06-19-20-31-25/
     RDKit          3D

 28 30  0  0  0  0  0  0  0  0999 V2000
  -10.3383   15.1532   67.5971 C   0  0  0  0  0  0  0  0  0  0  0  0
  -10.7220   15.1619   68.8301 N   0  0  0  0  0  0  0  0  0  0  0  0
  -10.4044   16.2024   69.6852 N   0  0  0  0  0  0  0  0  0  0  0  0
   -9.7271   17.3221   69.2607 C   0  0  0  0  0  0  0  0  0  0  0  0
   -9.3095   17.3212   67.9557 N   0  0  0  0  0  0  0  0  0  0  0  0
   -9.5450   16.2958   67.0814 C   0  0  0  0  0  0  0  0  0  0  0  0
  -10.8644   16.0907   71.0374 C   0  0  0  0  0  0  0  0  0  0  0  0
   -8.5330   18.4792   67.4604 C   0  0  0  0  0  0  0  0  0  0  0  0
   -9.5433   18.2987   69.9938 O   0  0  0  0  0  0  0  0  0  0  0  0
   -9.1481   16.2876   65.9124 O   0  0  0  0  0  0  0  0  0  0  0  0
  -10.7304   14.0247   66.8209 C   0  0  0  0  0  0  0  0  0  0  0  0
  -11.1003   13.0895   66.2465 N   0  0  0  0  0  0  0  0  0  0  0  0
   -7.0275   18.2876   67.7219 C   0  0  0  0  0  0  0  0  0  0  0  0
  -10.0126   16.3511   72.1395 C   0  0  0  0  0  0  0  0  0  0  0  0
  -10.4883   16.2212   73.4591 C   0  0  0  0  0  0  0  0  0  0  0  0
  -11.8103   15.8022   73.6966 C   0  0  0  0  0  0  0  0  0  0  0  0
  -12.6594   15.5153   72.6113 C   0  0  0  0  0  0  0  0  0  0  0  0
  -12.1896   15.6561   71.2886 C   0  0  0  0  0  0  0  0  0  0  0  0
  -12.3486   15.5799   75.3255 Cl  0  0  0  0  0  0  0  0  0  0  0  0
   -6.5558   17.2018   67.9045 O   0  0  0  0  0  0  0  0  0  0  0  0
   -6.3090   19.3658   67.4558 N   0  0  0  0  0  0  0  0  0  0  0  0
   -5.0861   19.8317   67.3904 C   0  0  0  0  0  0  0  0  0  0  0  0
   -4.6703   20.9747   66.8091 C   0  0  0  0  0  0  0  0  0  0  0  0
   -3.9993   20.7677   65.7475 C   0  0  0  0  0  0  0  0  0  0  0  0
   -3.0667   19.6526   65.6818 C   0  0  0  0  0  0  0  0  0  0  0  0
   -3.3205   18.4011   66.3308 C   0  0  0  0  0  0  0  0  0  0  0  0
   -4.4412   18.5251   67.2743 C   0  0  0  0  0  0  0  0  0  0  0  0
   -3.4136   22.0304   64.9894 C   0  0  0  0  0  0  0  0  0  0  0  0
  1  2  2  0
  1  6  1  0
  1 11  1  0
  2  3  1  0
  3  4  1  0
  3  7  1  0
  4  9  2  0
  4  5  1  0
  5  6  1  0
  5  8  1  0
  6 10  2  0
  8 13  1  0
 11 12  3  0
 16 19  1  0
 13 20  2  0
 13 21  1  0
 21 22  1  0
 24 28  1  0
 22 23  2  0
 23 24  1  0
 24 25  2  0
 25 26  1  0
 26 27  2  0
 27 22  1  0
  7 18  2  0
 18 17  1  0
 17 16  2  0
 16 15  1  0
 15 14  2  0
 14  7  1  0
M  END

$$$$
No_158-gen_results_new/Mpro_initial_molecule_p3/2024-06-19-20-31-25/
     RDKit          3D

 27 29  0  0  0  0  0  0  0  0999 V2000
  -10.3383   15.1532   67.5971 C   0  0  0  0  0  0  0  0  0  0  0  0
  -10.7220   15.1619   68.8301 N   0  0  0  0  0  0  0  0  0  0  0  0
  -10.4044   16.2024   69.6852 N   0  0  0  0  0  0  0  0  0  0  0  0
   -9.7271   17.3221   69.2607 C   0  0  0  0  0  0  0  0  0  0  0  0
   -9.3095   17.3212   67.9557 N   0  0  0  0  0  0  0  0  0  0  0  0
   -9.5450   16.2958   67.0814 C   0  0  0  0  0  0  0  0  0  0  0  0
  -10.8644   16.0907   71.0374 C   0  0  0  0  0  0  0  0  0  0  0  0
   -8.5330   18.4792   67.4604 C   0  0  0  0  0  0  0  0  0  0  0  0
   -9.5433   18.2987   69.9938 O   0  0  0  0  0  0  0  0  0  0  0  0
   -9.1481   16.2876   65.9124 O   0  0  0  0  0  0  0  0  0  0  0  0
  -10.7304   14.0247   66.8209 C   0  0  0  0  0  0  0  0  0  0  0  0
  -11.1003   13.0895   66.2465 N   0  0  0  0  0  0  0  0  0  0  0  0
   -7.0275   18.2876   67.7219 C   0  0  0  0  0  0  0  0  0  0  0  0
  -10.0126   16.3511   72.1395 C   0  0  0  0  0  0  0  0  0  0  0  0
  -10.4883   16.2212   73.4591 C   0  0  0  0  0  0  0  0  0  0  0  0
  -11.8103   15.8022   73.6966 C   0  0  0  0  0  0  0  0  0  0  0  0
  -12.6594   15.5153   72.6113 C   0  0  0  0  0  0  0  0  0  0  0  0
  -12.1896   15.6561   71.2886 C   0  0  0  0  0  0  0  0  0  0  0  0
  -12.2484   15.6097   75.0215 N   0  0  0  0  0  0  0  0  0  0  0  0
   -6.4521   19.3094   67.8826 C   0  0  0  0  0  0  0  0  0  0  0  0
   -4.9660   19.3672   67.8807 C   0  0  0  0  0  0  0  0  0  0  0  0
   -4.2471   20.6429   68.0388 C   0  0  0  0  0  0  0  0  0  0  0  0
   -3.2785   20.4349   69.1946 C   0  0  0  0  0  0  0  0  0  0  0  0
   -2.7213   19.2248   69.5668 C   0  0  0  0  0  0  0  0  0  0  0  0
   -3.4882   18.0016   69.5024 C   0  0  0  0  0  0  0  0  0  0  0  0
   -4.6829   18.1434   68.6742 C   0  0  0  0  0  0  0  0  0  0  0  0
  -11.7891   16.4399   75.9267 C   0  0  0  0  0  0  0  0  0  0  0  0
  1  2  2  0
  1  6  1  0
  1 11  1  0
  2  3  1  0
  3  4  1  0
  3  7  1  0
  4  9  2  0
  4  5  1  0
  5  6  1  0
  5  8  1  0
  6 10  2  0
  8 13  1  0
 11 12  3  0
 16 19  1  0
 13 20  1  0
 20 21  1  0
 19 27  1  0
  7 18  2  0
 18 17  1  0
 17 16  2  0
 16 15  1  0
 15 14  2  0
 14  7  1  0
 21 22  2  0
 22 23  1  0
 23 24  2  0
 24 25  1  0
 25 26  2  0
 26 21  1  0
M  END

$$$$
No_159-gen_results_new/Mpro_initial_molecule_p3/2024-06-19-20-31-25/
     RDKit          3D

 28 30  0  0  0  0  0  0  0  0999 V2000
  -10.3383   15.1532   67.5971 C   0  0  0  0  0  0  0  0  0  0  0  0
  -10.7220   15.1619   68.8301 N   0  0  0  0  0  0  0  0  0  0  0  0
  -10.4044   16.2024   69.6852 N   0  0  0  0  0  0  0  0  0  0  0  0
   -9.7271   17.3221   69.2607 C   0  0  0  0  0  0  0  0  0  0  0  0
   -9.3095   17.3212   67.9557 N   0  0  0  0  0  0  0  0  0  0  0  0
   -9.5450   16.2958   67.0814 C   0  0  0  0  0  0  0  0  0  0  0  0
  -10.8644   16.0907   71.0374 C   0  0  0  0  0  0  0  0  0  0  0  0
   -8.5330   18.4792   67.4604 C   0  0  0  0  0  0  0  0  0  0  0  0
   -9.5433   18.2987   69.9938 O   0  0  0  0  0  0  0  0  0  0  0  0
   -9.1481   16.2876   65.9124 O   0  0  0  0  0  0  0  0  0  0  0  0
  -10.7304   14.0247   66.8209 C   0  0  0  0  0  0  0  0  0  0  0  0
  -11.1003   13.0895   66.2465 N   0  0  0  0  0  0  0  0  0  0  0  0
   -7.0275   18.2876   67.7219 C   0  0  0  0  0  0  0  0  0  0  0  0
  -10.0126   16.3511   72.1395 C   0  0  0  0  0  0  0  0  0  0  0  0
  -10.4883   16.2212   73.4591 C   0  0  0  0  0  0  0  0  0  0  0  0
  -11.8103   15.8022   73.6966 C   0  0  0  0  0  0  0  0  0  0  0  0
  -12.6594   15.5153   72.6113 C   0  0  0  0  0  0  0  0  0  0  0  0
  -12.1896   15.6561   71.2886 C   0  0  0  0  0  0  0  0  0  0  0  0
  -12.2484   15.6088   75.0145 O   0  0  0  0  0  0  0  0  0  0  0  0
   -6.3059   19.3591   66.9155 C   0  0  0  0  0  0  0  0  0  0  0  0
   -5.0333   19.3708   67.0017 N   0  0  0  0  0  0  0  0  0  0  0  0
   -6.7852   20.0150   65.7986 C   0  0  0  0  0  0  0  0  0  0  0  0
   -4.3410   18.6613   67.9054 C   0  0  0  0  0  0  0  0  0  0  0  0
   -4.2476   20.5957   66.8177 C   0  0  0  0  0  0  0  0  0  0  0  0
   -8.3312   19.8760   65.5554 C   0  0  0  0  0  0  0  0  0  0  0  0
   -9.0752   18.9185   66.2436 C   0  0  0  0  0  0  0  0  0  0  0  0
  -12.3396   16.7911   75.7222 C   0  0  0  0  0  0  0  0  0  0  0  0
   -2.9485   20.4349   67.1048 C   0  0  0  0  0  0  0  0  0  0  0  0
  1  2  2  0
  1  6  1  0
  1 11  1  0
  2  3  1  0
  3  4  1  0
  3  7  1  0
  4  9  2  0
  4  5  1  0
  5  6  1  0
  5  8  1  0
  6 10  2  0
 11 12  3  0
 16 19  1  0
 20 21  1  0
 21 23  1  0
 21 24  1  0
 19 27  1  0
 24 28  1  0
  8 13  2  0
 13 20  1  0
 20 22  2  0
 22 25  1  0
 25 26  2  0
 26  8  1  0
  7 18  2  0
 18 17  1  0
 17 16  2  0
 16 15  1  0
 15 14  2  0
 14  7  1  0
M  END

$$$$
No_160-gen_results_new/Mpro_initial_molecule_p3/2024-06-19-20-31-25/
     RDKit          3D

 28 30  0  0  0  0  0  0  0  0999 V2000
  -10.3383   15.1532   67.5971 C   0  0  0  0  0  0  0  0  0  0  0  0
  -10.7220   15.1619   68.8301 N   0  0  0  0  0  0  0  0  0  0  0  0
  -10.4044   16.2024   69.6852 N   0  0  0  0  0  0  0  0  0  0  0  0
   -9.7271   17.3221   69.2607 C   0  0  0  0  0  0  0  0  0  0  0  0
   -9.3095   17.3212   67.9557 N   0  0  0  0  0  0  0  0  0  0  0  0
   -9.5450   16.2958   67.0814 C   0  0  0  0  0  0  0  0  0  0  0  0
  -10.8644   16.0907   71.0374 C   0  0  0  0  0  0  0  0  0  0  0  0
   -8.5330   18.4792   67.4604 C   0  0  0  0  0  0  0  0  0  0  0  0
   -9.5433   18.2987   69.9938 O   0  0  0  0  0  0  0  0  0  0  0  0
   -9.1481   16.2876   65.9124 O   0  0  0  0  0  0  0  0  0  0  0  0
  -10.7304   14.0247   66.8209 C   0  0  0  0  0  0  0  0  0  0  0  0
  -11.1003   13.0895   66.2465 N   0  0  0  0  0  0  0  0  0  0  0  0
   -7.0275   18.2876   67.7219 C   0  0  0  0  0  0  0  0  0  0  0  0
  -10.0126   16.3511   72.1395 C   0  0  0  0  0  0  0  0  0  0  0  0
  -10.4883   16.2212   73.4591 C   0  0  0  0  0  0  0  0  0  0  0  0
  -11.8103   15.8022   73.6966 C   0  0  0  0  0  0  0  0  0  0  0  0
  -12.6594   15.5153   72.6113 C   0  0  0  0  0  0  0  0  0  0  0  0
  -12.1896   15.6561   71.2886 C   0  0  0  0  0  0  0  0  0  0  0  0
  -12.2768   15.6000   75.1088 C   0  0  0  0  0  0  0  0  0  0  0  0
   -6.3059   19.3590   66.9154 C   0  0  0  0  0  0  0  0  0  0  0  0
   -4.9893   19.4432   66.9685 C   0  0  0  0  0  0  0  0  0  0  0  0
   -4.2710   18.3392   67.6545 C   0  0  0  0  0  0  0  0  0  0  0  0
   -5.0431   17.2552   68.3050 C   0  0  0  0  0  0  0  0  0  0  0  0
   -6.4246   17.2337   68.1850 C   0  0  0  0  0  0  0  0  0  0  0  0
  -12.3524   14.5924   75.5996 O   0  0  0  0  0  0  0  0  0  0  0  0
  -12.4572   16.7012   75.7581 O   0  0  0  0  0  0  0  0  0  0  0  0
   -4.0881   20.5893   66.2797 Cl  0  0  0  0  0  0  0  0  0  0  0  0
  -13.9779   14.9940   72.8211 N   0  0  0  0  0  0  0  0  0  0  0  0
  1  2  2  0
  1  6  1  0
  1 11  1  0
  2  3  1  0
  3  4  1  0
  3  7  1  0
  4  9  2  0
  4  5  1  0
  5  6  1  0
  5  8  1  0
  6 10  2  0
  8 13  1  0
 11 12  3  0
 16 19  1  0
 19 25  2  0
 19 26  1  0
 21 27  1  0
 17 28  1  0
 13 20  2  0
 20 21  1  0
 21 22  2  0
 22 23  1  0
 23 24  2  0
 24 13  1  0
  7 18  2  0
 18 17  1  0
 17 16  2  0
 16 15  1  0
 15 14  2  0
 14  7  1  0
M  END

$$$$
No_161-gen_results_new/Mpro_initial_molecule_p3/2024-06-19-20-31-25/
     RDKit          3D

 28 30  0  0  0  0  0  0  0  0999 V2000
  -10.3383   15.1532   67.5971 C   0  0  0  0  0  0  0  0  0  0  0  0
  -10.7220   15.1619   68.8301 N   0  0  0  0  0  0  0  0  0  0  0  0
  -10.4044   16.2024   69.6852 N   0  0  0  0  0  0  0  0  0  0  0  0
   -9.7271   17.3221   69.2607 C   0  0  0  0  0  0  0  0  0  0  0  0
   -9.3095   17.3212   67.9557 N   0  0  0  0  0  0  0  0  0  0  0  0
   -9.5450   16.2958   67.0814 C   0  0  0  0  0  0  0  0  0  0  0  0
  -10.8644   16.0907   71.0374 C   0  0  0  0  0  0  0  0  0  0  0  0
   -8.5330   18.4792   67.4604 C   0  0  0  0  0  0  0  0  0  0  0  0
   -9.5433   18.2987   69.9938 O   0  0  0  0  0  0  0  0  0  0  0  0
   -9.1481   16.2876   65.9124 O   0  0  0  0  0  0  0  0  0  0  0  0
  -10.7304   14.0247   66.8209 C   0  0  0  0  0  0  0  0  0  0  0  0
  -11.1003   13.0895   66.2465 N   0  0  0  0  0  0  0  0  0  0  0  0
   -7.0275   18.2876   67.7219 C   0  0  0  0  0  0  0  0  0  0  0  0
  -10.0126   16.3511   72.1395 C   0  0  0  0  0  0  0  0  0  0  0  0
  -10.4883   16.2212   73.4591 C   0  0  0  0  0  0  0  0  0  0  0  0
  -11.8103   15.8022   73.6966 C   0  0  0  0  0  0  0  0  0  0  0  0
  -12.6594   15.5153   72.6113 C   0  0  0  0  0  0  0  0  0  0  0  0
  -12.1896   15.6561   71.2886 C   0  0  0  0  0  0  0  0  0  0  0  0
  -12.3486   15.5799   75.3255 Cl  0  0  0  0  0  0  0  0  0  0  0  0
   -6.4523   19.3079   67.8835 C   0  0  0  0  0  0  0  0  0  0  0  0
   -6.2032   19.5449   69.0280 C   0  0  0  0  0  0  0  0  0  0  0  0
   -5.7757   18.3738   69.8014 C   0  0  0  0  0  0  0  0  0  0  0  0
   -5.4995   17.3865   69.5534 C   0  0  0  0  0  0  0  0  0  0  0  0
   -5.3658   16.1196   70.4443 C   0  0  0  0  0  0  0  0  0  0  0  0
   -5.9888   16.2274   71.7088 C   0  0  0  0  0  0  0  0  0  0  0  0
   -6.3304   17.4591   72.2141 C   0  0  0  0  0  0  0  0  0  0  0  0
   -6.3531   18.5800   71.3550 C   0  0  0  0  0  0  0  0  0  0  0  0
   -6.1580   20.4006   66.8552 C   0  0  0  0  0  0  0  0  0  0  0  0
  1  2  2  0
  1  6  1  0
  1 11  1  0
  2  3  1  0
  3  4  1  0
  3  7  1  0
  4  9  2  0
  4  5  1  0
  5  6  1  0
  5  8  1  0
  6 10  2  0
  8 13  1  0
 11 12  3  0
 16 19  1  0
 13 20  1  0
 20 21  2  3
 21 22  1  0
 20 28  1  0
 22 23  2  0
 23 24  1  0
 24 25  2  0
 25 26  1  0
 26 27  2  0
 27 22  1  0
  7 18  2  0
 18 17  1  0
 17 16  2  0
 16 15  1  0
 15 14  2  0
 14  7  1  0
M  END

$$$$
No_162-gen_results_new/Mpro_initial_molecule_p3/2024-06-19-20-31-25/
     RDKit          3D

 27 29  0  0  0  0  0  0  0  0999 V2000
  -10.3383   15.1532   67.5971 C   0  0  0  0  0  0  0  0  0  0  0  0
  -10.7220   15.1619   68.8301 N   0  0  0  0  0  0  0  0  0  0  0  0
  -10.4044   16.2024   69.6852 N   0  0  0  0  0  0  0  0  0  0  0  0
   -9.7271   17.3221   69.2607 C   0  0  0  0  0  0  0  0  0  0  0  0
   -9.3095   17.3212   67.9557 N   0  0  0  0  0  0  0  0  0  0  0  0
   -9.5450   16.2958   67.0814 C   0  0  0  0  0  0  0  0  0  0  0  0
  -10.8644   16.0907   71.0374 C   0  0  0  0  0  0  0  0  0  0  0  0
   -8.5330   18.4792   67.4604 C   0  0  0  0  0  0  0  0  0  0  0  0
   -9.5433   18.2987   69.9938 O   0  0  0  0  0  0  0  0  0  0  0  0
   -9.1481   16.2876   65.9124 O   0  0  0  0  0  0  0  0  0  0  0  0
  -10.7304   14.0247   66.8209 C   0  0  0  0  0  0  0  0  0  0  0  0
  -11.1003   13.0895   66.2465 N   0  0  0  0  0  0  0  0  0  0  0  0
   -7.0275   18.2876   67.7219 C   0  0  0  0  0  0  0  0  0  0  0  0
  -10.0126   16.3511   72.1395 C   0  0  0  0  0  0  0  0  0  0  0  0
  -10.4883   16.2212   73.4591 C   0  0  0  0  0  0  0  0  0  0  0  0
  -11.8103   15.8022   73.6966 C   0  0  0  0  0  0  0  0  0  0  0  0
  -12.6594   15.5153   72.6113 C   0  0  0  0  0  0  0  0  0  0  0  0
  -12.1896   15.6561   71.2886 C   0  0  0  0  0  0  0  0  0  0  0  0
  -12.3486   15.5799   75.3255 Cl  0  0  0  0  0  0  0  0  0  0  0  0
   -6.5344   17.3734   68.3696 C   0  0  0  0  0  0  0  0  0  0  0  0
   -5.1249   17.1828   68.5820 C   0  0  0  0  0  0  0  0  0  0  0  0
   -4.3548   17.9831   67.7399 N   0  0  0  0  0  0  0  0  0  0  0  0
   -6.1850   18.8948   66.7780 C   0  0  0  0  0  0  0  0  0  0  0  0
   -6.6547   19.8711   65.7932 C   0  0  0  0  0  0  0  0  0  0  0  0
   -4.8100   18.7713   66.9186 C   0  0  0  0  0  0  0  0  0  0  0  0
   -7.9022   20.1227   65.6709 O   0  0  0  0  0  0  0  0  0  0  0  0
   -5.9526   20.5899   65.1821 O   0  0  0  0  0  0  0  0  0  0  0  0
  1  2  2  0
  1  6  1  0
  1 11  1  0
  2  3  1  0
  3  4  1  0
  3  7  1  0
  4  9  2  0
  4  5  1  0
  5  6  1  0
  5  8  1  0
  6 10  2  0
  8 13  1  0
 11 12  3  0
 16 19  1  0
 23 24  1  0
 24 26  2  0
 24 27  1  0
 13 20  2  0
 20 21  1  0
 21 22  2  0
 22 25  1  0
 25 23  2  0
 23 13  1  0
  7 18  2  0
 18 17  1  0
 17 16  2  0
 16 15  1  0
 15 14  2  0
 14  7  1  0
M  END

$$$$
No_163-gen_results_new/Mpro_initial_molecule_p3/2024-06-19-20-31-25/
     RDKit          3D

 28 30  0  0  0  0  0  0  0  0999 V2000
  -10.3383   15.1532   67.5971 C   0  0  0  0  0  0  0  0  0  0  0  0
  -10.7220   15.1619   68.8301 N   0  0  0  0  0  0  0  0  0  0  0  0
  -10.4044   16.2024   69.6852 N   0  0  0  0  0  0  0  0  0  0  0  0
   -9.7271   17.3221   69.2607 C   0  0  0  0  0  0  0  0  0  0  0  0
   -9.3095   17.3212   67.9557 N   0  0  0  0  0  0  0  0  0  0  0  0
   -9.5450   16.2958   67.0814 C   0  0  0  0  0  0  0  0  0  0  0  0
  -10.8644   16.0907   71.0374 C   0  0  0  0  0  0  0  0  0  0  0  0
   -8.5330   18.4792   67.4604 C   0  0  0  0  0  0  0  0  0  0  0  0
   -9.5433   18.2987   69.9938 O   0  0  0  0  0  0  0  0  0  0  0  0
   -9.1481   16.2876   65.9124 O   0  0  0  0  0  0  0  0  0  0  0  0
  -10.7304   14.0247   66.8209 C   0  0  0  0  0  0  0  0  0  0  0  0
  -11.1003   13.0895   66.2465 N   0  0  0  0  0  0  0  0  0  0  0  0
   -7.0275   18.2876   67.7219 C   0  0  0  0  0  0  0  0  0  0  0  0
  -10.0126   16.3511   72.1395 C   0  0  0  0  0  0  0  0  0  0  0  0
  -10.4883   16.2212   73.4591 C   0  0  0  0  0  0  0  0  0  0  0  0
  -11.8103   15.8022   73.6966 C   0  0  0  0  0  0  0  0  0  0  0  0
  -12.6594   15.5153   72.6113 C   0  0  0  0  0  0  0  0  0  0  0  0
  -12.1896   15.6561   71.2886 C   0  0  0  0  0  0  0  0  0  0  0  0
  -12.3486   15.5799   75.3255 Cl  0  0  0  0  0  0  0  0  0  0  0  0
   -6.5344   17.3734   68.3696 C   0  0  0  0  0  0  0  0  0  0  0  0
   -5.0729   17.5397   68.5445 C   0  0  0  0  0  0  0  0  0  0  0  0
   -4.2818   18.2412   67.7613 C   0  0  0  0  0  0  0  0  0  0  0  0
   -4.9166   19.1687   66.9519 C   0  0  0  0  0  0  0  0  0  0  0  0
   -6.3130   19.1603   66.8063 C   0  0  0  0  0  0  0  0  0  0  0  0
  -14.1197   14.9539   72.8037 C   0  0  0  0  0  0  0  0  0  0  0  0
   -4.0981   20.0675   66.1145 C   0  0  0  0  0  0  0  0  0  0  0  0
   -4.4309   21.3413   66.0556 C   0  0  0  0  0  0  0  0  0  0  0  0
   -3.7876   22.0366   65.1533 N   0  0  0  0  0  0  0  0  0  0  0  0
  1  2  2  0
  1  6  1  0
  1 11  1  0
  2  3  1  0
  3  4  1  0
  3  7  1  0
  4  9  2  0
  4  5  1  0
  5  6  1  0
  5  8  1  0
  6 10  2  0
  8 13  1  0
 11 12  3  0
 16 19  1  0
 17 25  1  0
 23 26  1  0
 26 27  1  0
 27 28  1  0
 13 20  2  0
 20 21  1  0
 21 22  2  0
 22 23  1  0
 23 24  2  0
 24 13  1  0
  7 18  2  0
 18 17  1  0
 17 16  2  0
 16 15  1  0
 15 14  2  0
 14  7  1  0
M  END

$$$$
No_164-gen_results_new/Mpro_initial_molecule_p3/2024-06-19-20-31-25/
     RDKit          3D

 25 27  0  0  0  0  0  0  0  0999 V2000
  -10.3383   15.1532   67.5971 C   0  0  0  0  0  0  0  0  0  0  0  0
  -10.7220   15.1619   68.8301 N   0  0  0  0  0  0  0  0  0  0  0  0
  -10.4044   16.2024   69.6852 N   0  0  0  0  0  0  0  0  0  0  0  0
   -9.7271   17.3221   69.2607 C   0  0  0  0  0  0  0  0  0  0  0  0
   -9.3095   17.3212   67.9557 N   0  0  0  0  0  0  0  0  0  0  0  0
   -9.5450   16.2958   67.0814 C   0  0  0  0  0  0  0  0  0  0  0  0
  -10.8644   16.0907   71.0374 C   0  0  0  0  0  0  0  0  0  0  0  0
   -8.5330   18.4792   67.4604 C   0  0  0  0  0  0  0  0  0  0  0  0
   -9.5433   18.2987   69.9938 O   0  0  0  0  0  0  0  0  0  0  0  0
   -9.1481   16.2876   65.9124 O   0  0  0  0  0  0  0  0  0  0  0  0
  -10.7304   14.0247   66.8209 C   0  0  0  0  0  0  0  0  0  0  0  0
  -11.1003   13.0895   66.2465 N   0  0  0  0  0  0  0  0  0  0  0  0
   -7.0275   18.2876   67.7219 C   0  0  0  0  0  0  0  0  0  0  0  0
  -10.0126   16.3511   72.1395 C   0  0  0  0  0  0  0  0  0  0  0  0
  -10.4883   16.2212   73.4591 C   0  0  0  0  0  0  0  0  0  0  0  0
  -11.8103   15.8022   73.6966 C   0  0  0  0  0  0  0  0  0  0  0  0
  -12.6594   15.5153   72.6113 C   0  0  0  0  0  0  0  0  0  0  0  0
  -12.1896   15.6561   71.2886 C   0  0  0  0  0  0  0  0  0  0  0  0
  -12.3998   15.5587   75.4931 Br  0  0  0  0  0  0  0  0  0  0  0  0
   -6.3057   19.3591   66.9157 C   0  0  0  0  0  0  0  0  0  0  0  0
   -4.9904   19.4442   66.9696 C   0  0  0  0  0  0  0  0  0  0  0  0
   -4.2890   20.4313   66.2897 C   0  0  0  0  0  0  0  0  0  0  0  0
   -4.9690   21.5148   65.8589 C   0  0  0  0  0  0  0  0  0  0  0  0
   -6.3365   21.4884   65.8467 N   0  0  0  0  0  0  0  0  0  0  0  0
   -7.0200   20.4701   66.3825 C   0  0  0  0  0  0  0  0  0  0  0  0
  1  2  2  0
  1  6  1  0
  1 11  1  0
  2  3  1  0
  3  4  1  0
  3  7  1  0
  4  9  2  0
  4  5  1  0
  5  6  1  0
  5  8  1  0
  6 10  2  0
  8 13  1  0
 11 12  3  0
 16 19  1  0
 13 20  1  0
 20 21  2  0
 21 22  1  0
 22 23  2  0
 23 24  1  0
 24 25  2  0
 25 20  1  0
  7 18  2  0
 18 17  1  0
 17 16  2  0
 16 15  1  0
 15 14  2  0
 14  7  1  0
M  END

$$$$
No_165-gen_results_new/Mpro_initial_molecule_p3/2024-06-19-20-31-25/
     RDKit          3D

 28 30  0  0  0  0  0  0  0  0999 V2000
  -10.3383   15.1532   67.5971 C   0  0  0  0  0  0  0  0  0  0  0  0
  -10.7220   15.1619   68.8301 N   0  0  0  0  0  0  0  0  0  0  0  0
  -10.4044   16.2024   69.6852 N   0  0  0  0  0  0  0  0  0  0  0  0
   -9.7271   17.3221   69.2607 C   0  0  0  0  0  0  0  0  0  0  0  0
   -9.3095   17.3212   67.9557 N   0  0  0  0  0  0  0  0  0  0  0  0
   -9.5450   16.2958   67.0814 C   0  0  0  0  0  0  0  0  0  0  0  0
  -10.8644   16.0907   71.0374 C   0  0  0  0  0  0  0  0  0  0  0  0
   -8.5330   18.4792   67.4604 C   0  0  0  0  0  0  0  0  0  0  0  0
   -9.5433   18.2987   69.9938 O   0  0  0  0  0  0  0  0  0  0  0  0
   -9.1481   16.2876   65.9124 O   0  0  0  0  0  0  0  0  0  0  0  0
  -10.7304   14.0247   66.8209 C   0  0  0  0  0  0  0  0  0  0  0  0
  -11.1003   13.0895   66.2465 N   0  0  0  0  0  0  0  0  0  0  0  0
   -7.0275   18.2876   67.7219 C   0  0  0  0  0  0  0  0  0  0  0  0
  -10.0126   16.3511   72.1395 C   0  0  0  0  0  0  0  0  0  0  0  0
  -10.4883   16.2212   73.4591 C   0  0  0  0  0  0  0  0  0  0  0  0
  -11.8103   15.8022   73.6966 C   0  0  0  0  0  0  0  0  0  0  0  0
  -12.6594   15.5153   72.6113 C   0  0  0  0  0  0  0  0  0  0  0  0
  -12.1896   15.6561   71.2886 C   0  0  0  0  0  0  0  0  0  0  0  0
  -12.3486   15.5799   75.3255 Cl  0  0  0  0  0  0  0  0  0  0  0  0
   -6.5344   17.3734   68.3696 C   0  0  0  0  0  0  0  0  0  0  0  0
   -5.1249   17.1828   68.5820 C   0  0  0  0  0  0  0  0  0  0  0  0
   -4.4394   18.0509   67.8370 C   0  0  0  0  0  0  0  0  0  0  0  0
   -4.8688   19.0467   67.0682 C   0  0  0  0  0  0  0  0  0  0  0  0
   -6.2626   19.1636   66.9253 C   0  0  0  0  0  0  0  0  0  0  0  0
  -13.9945   15.0201   72.7823 F   0  0  0  0  0  0  0  0  0  0  0  0
   -4.0588   19.9361   66.3731 N   0  0  0  0  0  0  0  0  0  0  0  0
   -3.8479   19.9160   65.1677 C   0  0  0  0  0  0  0  0  0  0  0  0
   -4.0375   20.8031   64.2990 C   0  0  0  0  0  0  0  0  0  0  0  0
  1  2  2  0
  1  6  1  0
  1 11  1  0
  2  3  1  0
  3  4  1  0
  3  7  1  0
  4  9  2  0
  4  5  1  0
  5  6  1  0
  5  8  1  0
  6 10  2  0
  8 13  1  0
 11 12  3  0
 16 19  1  0
 17 25  1  0
 23 26  1  0
 26 27  1  0
 27 28  1  0
 13 20  2  0
 20 21  1  0
 21 22  2  0
 22 23  1  0
 23 24  2  0
 24 13  1  0
  7 18  2  0
 18 17  1  0
 17 16  2  0
 16 15  1  0
 15 14  2  0
 14  7  1  0
M  END

$$$$
No_166-gen_results_new/Mpro_initial_molecule_p3/2024-06-19-20-31-25/
     RDKit          3D

 28 30  0  0  0  0  0  0  0  0999 V2000
  -10.3383   15.1532   67.5971 C   0  0  0  0  0  0  0  0  0  0  0  0
  -10.7220   15.1619   68.8301 N   0  0  0  0  0  0  0  0  0  0  0  0
  -10.4044   16.2024   69.6852 N   0  0  0  0  0  0  0  0  0  0  0  0
   -9.7271   17.3221   69.2607 C   0  0  0  0  0  0  0  0  0  0  0  0
   -9.3095   17.3212   67.9557 N   0  0  0  0  0  0  0  0  0  0  0  0
   -9.5450   16.2958   67.0814 C   0  0  0  0  0  0  0  0  0  0  0  0
  -10.8644   16.0907   71.0374 C   0  0  0  0  0  0  0  0  0  0  0  0
   -8.5330   18.4792   67.4604 C   0  0  0  0  0  0  0  0  0  0  0  0
   -9.5433   18.2987   69.9938 O   0  0  0  0  0  0  0  0  0  0  0  0
   -9.1481   16.2876   65.9124 O   0  0  0  0  0  0  0  0  0  0  0  0
  -10.7304   14.0247   66.8209 C   0  0  0  0  0  0  0  0  0  0  0  0
  -11.1003   13.0895   66.2465 N   0  0  0  0  0  0  0  0  0  0  0  0
   -7.0275   18.2876   67.7219 C   0  0  0  0  0  0  0  0  0  0  0  0
  -10.0126   16.3511   72.1395 C   0  0  0  0  0  0  0  0  0  0  0  0
  -10.4883   16.2212   73.4591 C   0  0  0  0  0  0  0  0  0  0  0  0
  -11.8103   15.8022   73.6966 C   0  0  0  0  0  0  0  0  0  0  0  0
  -12.6594   15.5153   72.6113 C   0  0  0  0  0  0  0  0  0  0  0  0
  -12.1896   15.6561   71.2886 C   0  0  0  0  0  0  0  0  0  0  0  0
  -12.2768   15.6000   75.1088 C   0  0  0  0  0  0  0  0  0  0  0  0
   -6.3059   19.3590   66.9154 C   0  0  0  0  0  0  0  0  0  0  0  0
   -4.9893   19.4432   66.9685 C   0  0  0  0  0  0  0  0  0  0  0  0
   -4.2885   20.4305   66.2887 C   0  0  0  0  0  0  0  0  0  0  0  0
   -4.9684   21.5145   65.8586 C   0  0  0  0  0  0  0  0  0  0  0  0
   -6.3360   21.4886   65.8471 N   0  0  0  0  0  0  0  0  0  0  0  0
   -7.0197   20.4702   66.3828 C   0  0  0  0  0  0  0  0  0  0  0  0
  -12.9860   16.5596   75.4323 F   0  0  0  0  0  0  0  0  0  0  0  0
  -12.9852   14.4799   75.1769 F   0  0  0  0  0  0  0  0  0  0  0  0
  -11.2940   15.4344   75.9522 F   0  0  0  0  0  0  0  0  0  0  0  0
  1  2  2  0
  1  6  1  0
  1 11  1  0
  2  3  1  0
  3  4  1  0
  3  7  1  0
  4  9  2  0
  4  5  1  0
  5  6  1  0
  5  8  1  0
  6 10  2  0
  8 13  1  0
 11 12  3  0
 16 19  1  0
 13 20  1  0
 19 26  1  0
 19 27  1  0
 19 28  1  0
 20 21  2  0
 21 22  1  0
 22 23  2  0
 23 24  1  0
 24 25  2  0
 25 20  1  0
  7 18  2  0
 18 17  1  0
 17 16  2  0
 16 15  1  0
 15 14  2  0
 14  7  1  0
M  END

$$$$
No_167-gen_results_new/Mpro_initial_molecule_p3/2024-06-19-20-31-25/
     RDKit          3D

 28 30  0  0  0  0  0  0  0  0999 V2000
  -10.3383   15.1532   67.5971 C   0  0  0  0  0  0  0  0  0  0  0  0
  -10.7220   15.1619   68.8301 N   0  0  0  0  0  0  0  0  0  0  0  0
  -10.4044   16.2024   69.6852 N   0  0  0  0  0  0  0  0  0  0  0  0
   -9.7271   17.3221   69.2607 C   0  0  0  0  0  0  0  0  0  0  0  0
   -9.3095   17.3212   67.9557 N   0  0  0  0  0  0  0  0  0  0  0  0
   -9.5450   16.2958   67.0814 C   0  0  0  0  0  0  0  0  0  0  0  0
  -10.8644   16.0907   71.0374 C   0  0  0  0  0  0  0  0  0  0  0  0
   -8.5330   18.4792   67.4604 C   0  0  0  0  0  0  0  0  0  0  0  0
   -9.5433   18.2987   69.9938 O   0  0  0  0  0  0  0  0  0  0  0  0
   -9.1481   16.2876   65.9124 O   0  0  0  0  0  0  0  0  0  0  0  0
  -10.7304   14.0247   66.8209 C   0  0  0  0  0  0  0  0  0  0  0  0
  -11.1003   13.0895   66.2465 N   0  0  0  0  0  0  0  0  0  0  0  0
   -7.0275   18.2876   67.7219 C   0  0  0  0  0  0  0  0  0  0  0  0
  -10.0126   16.3511   72.1395 C   0  0  0  0  0  0  0  0  0  0  0  0
  -10.4883   16.2212   73.4591 C   0  0  0  0  0  0  0  0  0  0  0  0
  -11.8103   15.8022   73.6966 C   0  0  0  0  0  0  0  0  0  0  0  0
  -12.6594   15.5153   72.6113 C   0  0  0  0  0  0  0  0  0  0  0  0
  -12.1896   15.6561   71.2886 C   0  0  0  0  0  0  0  0  0  0  0  0
  -12.3486   15.5799   75.3255 Cl  0  0  0  0  0  0  0  0  0  0  0  0
   -6.4523   19.3079   67.8835 C   0  0  0  0  0  0  0  0  0  0  0  0
   -6.2543   20.3848   67.0158 C   0  0  0  0  0  0  0  0  0  0  0  0
   -7.6328   20.5650   66.3045 C   0  0  0  0  0  0  0  0  0  0  0  0
   -8.7542   19.5965   66.5568 C   0  0  0  0  0  0  0  0  0  0  0  0
   -5.4234   21.2892   66.7551 O   0  0  0  0  0  0  0  0  0  0  0  0
  -14.1215   14.9588   72.8046 C   0  0  0  0  0  0  0  0  0  0  0  0
   -4.3975   21.0904   66.0107 C   0  0  0  0  0  0  0  0  0  0  0  0
   -4.0232   21.9965   65.3575 C   0  0  0  0  0  0  0  0  0  0  0  0
   -2.7563   22.0039   64.5128 C   0  0  0  0  0  0  0  0  0  0  0  0
  1  2  2  0
  1  6  1  0
  1 11  1  0
  2  3  1  0
  3  4  1  0
  3  7  1  0
  4  9  2  0
  4  5  1  0
  5  6  1  0
  5  8  1  0
  6 10  2  0
 11 12  3  0
 16 19  1  0
 21 24  1  0
 17 25  1  0
 24 26  1  0
 26 27  1  0
 27 28  2  0
  8 13  2  0
 13 20  1  0
 20 21  2  0
 21 22  1  0
 22 23  2  0
 23  8  1  0
  7 18  2  0
 18 17  1  0
 17 16  2  0
 16 15  1  0
 15 14  2  0
 14  7  1  0
M  END

$$$$
No_168-gen_results_new/Mpro_initial_molecule_p3/2024-06-19-20-31-25/
     RDKit          3D

 28 30  0  0  0  0  0  0  0  0999 V2000
  -10.3383   15.1532   67.5971 C   0  0  0  0  0  0  0  0  0  0  0  0
  -10.7220   15.1619   68.8301 N   0  0  0  0  0  0  0  0  0  0  0  0
  -10.4044   16.2024   69.6852 N   0  0  0  0  0  0  0  0  0  0  0  0
   -9.7271   17.3221   69.2607 C   0  0  0  0  0  0  0  0  0  0  0  0
   -9.3095   17.3212   67.9557 N   0  0  0  0  0  0  0  0  0  0  0  0
   -9.5450   16.2958   67.0814 C   0  0  0  0  0  0  0  0  0  0  0  0
  -10.8644   16.0907   71.0374 C   0  0  0  0  0  0  0  0  0  0  0  0
   -8.5330   18.4792   67.4604 C   0  0  0  0  0  0  0  0  0  0  0  0
   -9.5433   18.2987   69.9938 O   0  0  0  0  0  0  0  0  0  0  0  0
   -9.1481   16.2876   65.9124 O   0  0  0  0  0  0  0  0  0  0  0  0
  -10.7304   14.0247   66.8209 C   0  0  0  0  0  0  0  0  0  0  0  0
  -11.1003   13.0895   66.2465 N   0  0  0  0  0  0  0  0  0  0  0  0
   -7.0275   18.2876   67.7219 C   0  0  0  0  0  0  0  0  0  0  0  0
  -10.0126   16.3511   72.1395 C   0  0  0  0  0  0  0  0  0  0  0  0
  -10.4883   16.2212   73.4591 C   0  0  0  0  0  0  0  0  0  0  0  0
  -11.8103   15.8022   73.6966 C   0  0  0  0  0  0  0  0  0  0  0  0
  -12.6594   15.5153   72.6113 C   0  0  0  0  0  0  0  0  0  0  0  0
  -12.1896   15.6561   71.2886 C   0  0  0  0  0  0  0  0  0  0  0  0
  -12.3486   15.5799   75.3255 Cl  0  0  0  0  0  0  0  0  0  0  0  0
   -6.3899   19.0618   66.8364 O   0  0  0  0  0  0  0  0  0  0  0  0
   -6.5279   17.5641   68.5287 N   0  0  0  0  0  0  0  0  0  0  0  0
  -14.1195   14.9539   72.8045 C   0  0  0  0  0  0  0  0  0  0  0  0
   -6.7541   16.6409   69.3398 C   0  0  0  0  0  0  0  0  0  0  0  0
   -6.5262   16.5626   70.7306 C   0  0  0  0  0  0  0  0  0  0  0  0
   -5.5887   15.9622   71.0379 C   0  0  0  0  0  0  0  0  0  0  0  0
   -5.3535   14.5371   70.6729 C   0  0  0  0  0  0  0  0  0  0  0  0
   -5.6328   14.2221   69.2571 C   0  0  0  0  0  0  0  0  0  0  0  0
   -6.3005   15.2523   68.5955 C   0  0  0  0  0  0  0  0  0  0  0  0
  1  2  2  0
  1  6  1  0
  1 11  1  0
  2  3  1  0
  3  4  1  0
  3  7  1  0
  4  9  2  0
  4  5  1  0
  5  6  1  0
  5  8  1  0
  6 10  2  0
  8 13  1  0
 11 12  3  0
 16 19  1  0
 13 20  2  0
 13 21  1  0
 17 22  1  0
 21 23  1  0
 23 24  2  0
 24 25  1  0
 25 26  2  0
 26 27  1  0
 27 28  2  0
 28 23  1  0
  7 18  2  0
 18 17  1  0
 17 16  2  0
 16 15  1  0
 15 14  2  0
 14  7  1  0
M  END

$$$$
No_169-gen_results_new/Mpro_initial_molecule_p3/2024-06-19-20-31-25/
     RDKit          3D

 28 30  0  0  0  0  0  0  0  0999 V2000
  -10.3383   15.1532   67.5971 C   0  0  0  0  0  0  0  0  0  0  0  0
  -10.7220   15.1619   68.8301 N   0  0  0  0  0  0  0  0  0  0  0  0
  -10.4044   16.2024   69.6852 N   0  0  0  0  0  0  0  0  0  0  0  0
   -9.7271   17.3221   69.2607 C   0  0  0  0  0  0  0  0  0  0  0  0
   -9.3095   17.3212   67.9557 N   0  0  0  0  0  0  0  0  0  0  0  0
   -9.5450   16.2958   67.0814 C   0  0  0  0  0  0  0  0  0  0  0  0
  -10.8644   16.0907   71.0374 C   0  0  0  0  0  0  0  0  0  0  0  0
   -8.5330   18.4792   67.4604 C   0  0  0  0  0  0  0  0  0  0  0  0
   -9.5433   18.2987   69.9938 O   0  0  0  0  0  0  0  0  0  0  0  0
   -9.1481   16.2876   65.9124 O   0  0  0  0  0  0  0  0  0  0  0  0
  -10.7304   14.0247   66.8209 C   0  0  0  0  0  0  0  0  0  0  0  0
  -11.1003   13.0895   66.2465 N   0  0  0  0  0  0  0  0  0  0  0  0
   -7.0275   18.2876   67.7219 C   0  0  0  0  0  0  0  0  0  0  0  0
  -10.0126   16.3511   72.1395 C   0  0  0  0  0  0  0  0  0  0  0  0
  -10.4883   16.2212   73.4591 C   0  0  0  0  0  0  0  0  0  0  0  0
  -11.8103   15.8022   73.6966 C   0  0  0  0  0  0  0  0  0  0  0  0
  -12.6594   15.5153   72.6113 C   0  0  0  0  0  0  0  0  0  0  0  0
  -12.1896   15.6561   71.2886 C   0  0  0  0  0  0  0  0  0  0  0  0
  -12.2768   15.6000   75.1088 C   0  0  0  0  0  0  0  0  0  0  0  0
   -6.5341   17.3729   68.3685 C   0  0  0  0  0  0  0  0  0  0  0  0
   -5.1308   17.1882   68.5568 C   0  0  0  0  0  0  0  0  0  0  0  0
   -6.3132   19.4047   67.2946 C   0  0  0  0  0  0  0  0  0  0  0  0
   -4.9040   19.2890   67.4766 C   0  0  0  0  0  0  0  0  0  0  0  0
   -4.3512   18.1958   68.1017 C   0  0  0  0  0  0  0  0  0  0  0  0
  -12.3515   14.5927   75.5999 O   0  0  0  0  0  0  0  0  0  0  0  0
  -12.8074   16.7355   75.7015 N   0  0  0  0  0  0  0  0  0  0  0  0
   -4.1703   20.3494   67.0914 F   0  0  0  0  0  0  0  0  0  0  0  0
  -14.0767   14.9618   72.8156 C   0  0  0  0  0  0  0  0  0  0  0  0
  1  2  2  0
  1  6  1  0
  1 11  1  0
  2  3  1  0
  3  4  1  0
  3  7  1  0
  4  9  2  0
  4  5  1  0
  5  6  1  0
  5  8  1  0
  6 10  2  0
  8 13  1  0
 11 12  3  0
 16 19  1  0
 19 25  2  0
 19 26  1  0
 23 27  1  0
 17 28  1  0
 13 20  2  0
 20 21  1  0
 21 24  2  0
 24 23  1  0
 23 22  2  0
 22 13  1  0
  7 18  2  0
 18 17  1  0
 17 16  2  0
 16 15  1  0
 15 14  2  0
 14  7  1  0
M  END

$$$$
No_170-gen_results_new/Mpro_initial_molecule_p3/2024-06-19-20-31-25/
     RDKit          3D

 28 30  0  0  0  0  0  0  0  0999 V2000
  -10.3383   15.1532   67.5971 C   0  0  0  0  0  0  0  0  0  0  0  0
  -10.7220   15.1619   68.8301 N   0  0  0  0  0  0  0  0  0  0  0  0
  -10.4044   16.2024   69.6852 N   0  0  0  0  0  0  0  0  0  0  0  0
   -9.7271   17.3221   69.2607 C   0  0  0  0  0  0  0  0  0  0  0  0
   -9.3095   17.3212   67.9557 N   0  0  0  0  0  0  0  0  0  0  0  0
   -9.5450   16.2958   67.0814 C   0  0  0  0  0  0  0  0  0  0  0  0
  -10.8644   16.0907   71.0374 C   0  0  0  0  0  0  0  0  0  0  0  0
   -8.5330   18.4792   67.4604 C   0  0  0  0  0  0  0  0  0  0  0  0
   -9.5433   18.2987   69.9938 O   0  0  0  0  0  0  0  0  0  0  0  0
   -9.1481   16.2876   65.9124 O   0  0  0  0  0  0  0  0  0  0  0  0
  -10.7304   14.0247   66.8209 C   0  0  0  0  0  0  0  0  0  0  0  0
  -11.1003   13.0895   66.2465 N   0  0  0  0  0  0  0  0  0  0  0  0
   -7.0275   18.2876   67.7219 C   0  0  0  0  0  0  0  0  0  0  0  0
  -10.0126   16.3511   72.1395 C   0  0  0  0  0  0  0  0  0  0  0  0
  -10.4883   16.2212   73.4591 C   0  0  0  0  0  0  0  0  0  0  0  0
  -11.8103   15.8022   73.6966 C   0  0  0  0  0  0  0  0  0  0  0  0
  -12.6594   15.5153   72.6113 C   0  0  0  0  0  0  0  0  0  0  0  0
  -12.1896   15.6561   71.2886 C   0  0  0  0  0  0  0  0  0  0  0  0
  -12.3486   15.5799   75.3255 Cl  0  0  0  0  0  0  0  0  0  0  0  0
   -6.3058   19.3592   66.9157 C   0  0  0  0  0  0  0  0  0  0  0  0
   -5.0306   19.3685   67.0004 N   0  0  0  0  0  0  0  0  0  0  0  0
   -6.8756   20.4378   66.5351 O   0  0  0  0  0  0  0  0  0  0  0  0
   -4.1505   20.3438   66.4096 C   0  0  0  0  0  0  0  0  0  0  0  0
   -3.9211   21.2539   67.0237 C   0  0  0  0  0  0  0  0  0  0  0  0
   -3.1011   22.2845   66.2013 C   0  0  0  0  0  0  0  0  0  0  0  0
   -2.6002   22.0308   65.0172 C   0  0  0  0  0  0  0  0  0  0  0  0
   -2.8987   20.8047   64.4070 C   0  0  0  0  0  0  0  0  0  0  0  0
   -3.6809   19.8802   65.1221 C   0  0  0  0  0  0  0  0  0  0  0  0
  1  2  2  0
  1  6  1  0
  1 11  1  0
  2  3  1  0
  3  4  1  0
  3  7  1  0
  4  9  2  0
  4  5  1  0
  5  6  1  0
  5  8  1  0
  6 10  2  0
  8 13  1  0
 11 12  3  0
 16 19  1  0
 13 20  1  0
 20 21  1  0
 20 22  2  0
 21 23  1  0
 23 24  2  0
 24 25  1  0
 25 26  2  0
 26 27  1  0
 27 28  2  0
 28 23  1  0
  7 18  2  0
 18 17  1  0
 17 16  2  0
 16 15  1  0
 15 14  2  0
 14  7  1  0
M  END

$$$$
No_171-gen_results_new/Mpro_initial_molecule_p3/2024-06-19-20-31-25/
     RDKit          3D

 28 30  0  0  0  0  0  0  0  0999 V2000
  -10.3383   15.1532   67.5971 C   0  0  0  0  0  0  0  0  0  0  0  0
  -10.7220   15.1619   68.8301 N   0  0  0  0  0  0  0  0  0  0  0  0
  -10.4044   16.2024   69.6852 N   0  0  0  0  0  0  0  0  0  0  0  0
   -9.7271   17.3221   69.2607 C   0  0  0  0  0  0  0  0  0  0  0  0
   -9.3095   17.3212   67.9557 N   0  0  0  0  0  0  0  0  0  0  0  0
   -9.5450   16.2958   67.0814 C   0  0  0  0  0  0  0  0  0  0  0  0
  -10.8644   16.0907   71.0374 C   0  0  0  0  0  0  0  0  0  0  0  0
   -8.5330   18.4792   67.4604 C   0  0  0  0  0  0  0  0  0  0  0  0
   -9.5433   18.2987   69.9938 O   0  0  0  0  0  0  0  0  0  0  0  0
   -9.1481   16.2876   65.9124 O   0  0  0  0  0  0  0  0  0  0  0  0
  -10.7304   14.0247   66.8209 C   0  0  0  0  0  0  0  0  0  0  0  0
  -11.1003   13.0895   66.2465 N   0  0  0  0  0  0  0  0  0  0  0  0
   -7.0275   18.2876   67.7219 C   0  0  0  0  0  0  0  0  0  0  0  0
  -10.0126   16.3511   72.1395 C   0  0  0  0  0  0  0  0  0  0  0  0
  -10.4883   16.2212   73.4591 C   0  0  0  0  0  0  0  0  0  0  0  0
  -11.8103   15.8022   73.6966 C   0  0  0  0  0  0  0  0  0  0  0  0
  -12.6594   15.5153   72.6113 C   0  0  0  0  0  0  0  0  0  0  0  0
  -12.1896   15.6561   71.2886 C   0  0  0  0  0  0  0  0  0  0  0  0
  -12.3486   15.5799   75.3255 Cl  0  0  0  0  0  0  0  0  0  0  0  0
   -6.4523   19.3079   67.8835 C   0  0  0  0  0  0  0  0  0  0  0  0
   -5.0368   19.2418   67.8299 N   0  0  0  0  0  0  0  0  0  0  0  0
   -4.2210   20.2316   67.8478 C   0  0  0  0  0  0  0  0  0  0  0  0
   -3.9084   20.8361   66.7423 C   0  0  0  0  0  0  0  0  0  0  0  0
   -4.9550   21.0586   65.7984 C   0  0  0  0  0  0  0  0  0  0  0  0
   -4.6136   21.6993   64.5851 C   0  0  0  0  0  0  0  0  0  0  0  0
   -3.4537   22.2540   64.3995 C   0  0  0  0  0  0  0  0  0  0  0  0
   -2.4125   22.0401   65.2834 C   0  0  0  0  0  0  0  0  0  0  0  0
   -2.6508   21.3942   66.4781 C   0  0  0  0  0  0  0  0  0  0  0  0
  1  2  2  0
  1  6  1  0
  1 11  1  0
  2  3  1  0
  3  4  1  0
  3  7  1  0
  4  9  2  0
  4  5  1  0
  5  6  1  0
  5  8  1  0
  6 10  2  0
  8 13  1  0
 11 12  3  0
 16 19  1  0
 13 20  1  0
 20 21  1  0
 21 22  1  0
 22 23  1  0
 23 24  2  0
 24 25  1  0
 25 26  2  0
 26 27  1  0
 27 28  2  0
 28 23  1  0
  7 18  2  0
 18 17  1  0
 17 16  2  0
 16 15  1  0
 15 14  2  0
 14  7  1  0
M  END

$$$$
No_172-gen_results_new/Mpro_initial_molecule_p3/2024-06-19-20-31-25/
     RDKit          3D

 28 30  0  0  0  0  0  0  0  0999 V2000
  -10.3383   15.1532   67.5971 C   0  0  0  0  0  0  0  0  0  0  0  0
  -10.7220   15.1619   68.8301 N   0  0  0  0  0  0  0  0  0  0  0  0
  -10.4044   16.2024   69.6852 N   0  0  0  0  0  0  0  0  0  0  0  0
   -9.7271   17.3221   69.2607 C   0  0  0  0  0  0  0  0  0  0  0  0
   -9.3095   17.3212   67.9557 N   0  0  0  0  0  0  0  0  0  0  0  0
   -9.5450   16.2958   67.0814 C   0  0  0  0  0  0  0  0  0  0  0  0
  -10.8644   16.0907   71.0374 C   0  0  0  0  0  0  0  0  0  0  0  0
   -8.5330   18.4792   67.4604 C   0  0  0  0  0  0  0  0  0  0  0  0
   -9.5433   18.2987   69.9938 O   0  0  0  0  0  0  0  0  0  0  0  0
   -9.1481   16.2876   65.9124 O   0  0  0  0  0  0  0  0  0  0  0  0
  -10.7304   14.0247   66.8209 C   0  0  0  0  0  0  0  0  0  0  0  0
  -11.1003   13.0895   66.2465 N   0  0  0  0  0  0  0  0  0  0  0  0
   -7.0275   18.2876   67.7219 C   0  0  0  0  0  0  0  0  0  0  0  0
  -10.0126   16.3511   72.1395 C   0  0  0  0  0  0  0  0  0  0  0  0
  -10.4883   16.2212   73.4591 C   0  0  0  0  0  0  0  0  0  0  0  0
  -11.8103   15.8022   73.6966 C   0  0  0  0  0  0  0  0  0  0  0  0
  -12.6594   15.5153   72.6113 C   0  0  0  0  0  0  0  0  0  0  0  0
  -12.1896   15.6561   71.2886 C   0  0  0  0  0  0  0  0  0  0  0  0
  -12.2484   15.6088   75.0145 O   0  0  0  0  0  0  0  0  0  0  0  0
   -6.5341   17.3731   68.3686 C   0  0  0  0  0  0  0  0  0  0  0  0
   -5.1307   17.1884   68.5569 C   0  0  0  0  0  0  0  0  0  0  0  0
   -6.2353   18.5839   66.5227 C   0  0  0  0  0  0  0  0  0  0  0  0
   -4.8739   18.3559   66.5018 C   0  0  0  0  0  0  0  0  0  0  0  0
   -4.3443   17.5536   67.4636 C   0  0  0  0  0  0  0  0  0  0  0  0
  -11.8769   16.5248   75.9058 C   0  0  0  0  0  0  0  0  0  0  0  0
  -13.9765   14.9533   72.7886 O   0  0  0  0  0  0  0  0  0  0  0  0
   -2.9802   17.2314   67.3800 O   0  0  0  0  0  0  0  0  0  0  0  0
   -2.5552   16.1644   67.4336 C   0  0  0  0  0  0  0  0  0  0  0  0
  1  2  2  0
  1  6  1  0
  1 11  1  0
  2  3  1  0
  3  4  1  0
  3  7  1  0
  4  9  2  0
  4  5  1  0
  5  6  1  0
  5  8  1  0
  6 10  2  0
  8 13  1  0
 11 12  3  0
 16 19  1  0
 19 25  1  0
 17 26  1  0
 24 27  1  0
 27 28  1  0
 13 20  2  0
 20 21  1  0
 21 24  2  0
 24 23  1  0
 23 22  2  0
 22 13  1  0
  7 18  2  0
 18 17  1  0
 17 16  2  0
 16 15  1  0
 15 14  2  0
 14  7  1  0
M  END

$$$$
No_173-gen_results_new/Mpro_initial_molecule_p3/2024-06-19-20-31-25/
     RDKit          3D

 28 30  0  0  0  0  0  0  0  0999 V2000
  -10.3383   15.1532   67.5971 C   0  0  0  0  0  0  0  0  0  0  0  0
  -10.7220   15.1619   68.8301 N   0  0  0  0  0  0  0  0  0  0  0  0
  -10.4044   16.2024   69.6852 N   0  0  0  0  0  0  0  0  0  0  0  0
   -9.7271   17.3221   69.2607 C   0  0  0  0  0  0  0  0  0  0  0  0
   -9.3095   17.3212   67.9557 N   0  0  0  0  0  0  0  0  0  0  0  0
   -9.5450   16.2958   67.0814 C   0  0  0  0  0  0  0  0  0  0  0  0
  -10.8644   16.0907   71.0374 C   0  0  0  0  0  0  0  0  0  0  0  0
   -8.5330   18.4792   67.4604 C   0  0  0  0  0  0  0  0  0  0  0  0
   -9.5433   18.2987   69.9938 O   0  0  0  0  0  0  0  0  0  0  0  0
   -9.1481   16.2876   65.9124 O   0  0  0  0  0  0  0  0  0  0  0  0
  -10.7304   14.0247   66.8209 C   0  0  0  0  0  0  0  0  0  0  0  0
  -11.1003   13.0895   66.2465 N   0  0  0  0  0  0  0  0  0  0  0  0
   -7.0275   18.2876   67.7219 C   0  0  0  0  0  0  0  0  0  0  0  0
  -10.0126   16.3511   72.1395 C   0  0  0  0  0  0  0  0  0  0  0  0
  -10.4883   16.2212   73.4591 C   0  0  0  0  0  0  0  0  0  0  0  0
  -11.8103   15.8022   73.6966 C   0  0  0  0  0  0  0  0  0  0  0  0
  -12.6594   15.5153   72.6113 C   0  0  0  0  0  0  0  0  0  0  0  0
  -12.1896   15.6561   71.2886 C   0  0  0  0  0  0  0  0  0  0  0  0
  -12.3486   15.5799   75.3255 Cl  0  0  0  0  0  0  0  0  0  0  0  0
   -6.4523   19.3079   67.8835 C   0  0  0  0  0  0  0  0  0  0  0  0
   -6.2543   20.3849   67.0158 C   0  0  0  0  0  0  0  0  0  0  0  0
   -6.3457   20.0750   65.8013 C   0  0  0  0  0  0  0  0  0  0  0  0
   -6.5735   19.0614   65.1686 C   0  0  0  0  0  0  0  0  0  0  0  0
   -6.9745   17.8284   66.2311 C   0  0  0  0  0  0  0  0  0  0  0  0
   -5.3505   20.7625   64.9621 N   0  0  0  0  0  0  0  0  0  0  0  0
   -5.6076   20.8856   63.5094 C   0  0  0  0  0  0  0  0  0  0  0  0
   -6.1539   21.9156   63.1438 C   0  0  0  0  0  0  0  0  0  0  0  0
   -4.8862   20.0364   62.7299 C   0  0  0  0  0  0  0  0  0  0  0  0
  1  2  2  0
  1  6  1  0
  1 11  1  0
  2  3  1  0
  3  4  1  0
  3  7  1  0
  4  9  2  0
  4  5  1  0
  5  6  1  0
  5  8  1  0
  6 10  2  0
  8 13  1  0
 11 12  3  0
 16 19  1  0
 22 25  1  0
 25 26  1  0
 26 27  1  0
 26 28  1  0
 13 20  2  0
 20 21  1  0
 21 22  2  0
 22 23  1  0
 23 24  2  0
 24 13  1  0
  7 18  2  0
 18 17  1  0
 17 16  2  0
 16 15  1  0
 15 14  2  0
 14  7  1  0
M  END

$$$$
No_174-gen_results_new/Mpro_initial_molecule_p3/2024-06-19-20-31-25/
     RDKit          3D

 28 30  0  0  0  0  0  0  0  0999 V2000
  -10.3383   15.1532   67.5971 C   0  0  0  0  0  0  0  0  0  0  0  0
  -10.7220   15.1619   68.8301 N   0  0  0  0  0  0  0  0  0  0  0  0
  -10.4044   16.2024   69.6852 N   0  0  0  0  0  0  0  0  0  0  0  0
   -9.7271   17.3221   69.2607 C   0  0  0  0  0  0  0  0  0  0  0  0
   -9.3095   17.3212   67.9557 N   0  0  0  0  0  0  0  0  0  0  0  0
   -9.5450   16.2958   67.0814 C   0  0  0  0  0  0  0  0  0  0  0  0
  -10.8644   16.0907   71.0374 C   0  0  0  0  0  0  0  0  0  0  0  0
   -8.5330   18.4792   67.4604 C   0  0  0  0  0  0  0  0  0  0  0  0
   -9.5433   18.2987   69.9938 O   0  0  0  0  0  0  0  0  0  0  0  0
   -9.1481   16.2876   65.9124 O   0  0  0  0  0  0  0  0  0  0  0  0
  -10.7304   14.0247   66.8209 C   0  0  0  0  0  0  0  0  0  0  0  0
  -11.1003   13.0895   66.2465 N   0  0  0  0  0  0  0  0  0  0  0  0
   -7.0275   18.2876   67.7219 C   0  0  0  0  0  0  0  0  0  0  0  0
  -10.0126   16.3511   72.1395 C   0  0  0  0  0  0  0  0  0  0  0  0
  -10.4883   16.2212   73.4591 C   0  0  0  0  0  0  0  0  0  0  0  0
  -11.8103   15.8022   73.6966 C   0  0  0  0  0  0  0  0  0  0  0  0
  -12.6594   15.5153   72.6113 C   0  0  0  0  0  0  0  0  0  0  0  0
  -12.1896   15.6561   71.2886 C   0  0  0  0  0  0  0  0  0  0  0  0
  -12.2768   15.6000   75.1088 C   0  0  0  0  0  0  0  0  0  0  0  0
   -6.5341   17.3729   68.3685 C   0  0  0  0  0  0  0  0  0  0  0  0
   -5.1249   17.1827   68.5818 C   0  0  0  0  0  0  0  0  0  0  0  0
   -4.5636   16.2596   69.3577 C   0  0  0  0  0  0  0  0  0  0  0  0
   -5.3627   15.4088   70.1866 C   0  0  0  0  0  0  0  0  0  0  0  0
   -6.8136   15.6412   70.2129 C   0  0  0  0  0  0  0  0  0  0  0  0
   -7.5923   14.8138   71.1551 C   0  0  0  0  0  0  0  0  0  0  0  0
   -7.3695   16.5120   69.3481 C   0  0  0  0  0  0  0  0  0  0  0  0
  -12.6813   14.5204   75.4216 F   0  0  0  0  0  0  0  0  0  0  0  0
  -13.1145   16.6111   75.4025 F   0  0  0  0  0  0  0  0  0  0  0  0
  1  2  2  0
  1  6  1  0
  1 11  1  0
  2  3  1  0
  3  4  1  0
  3  7  1  0
  4  9  2  0
  4  5  1  0
  5  6  1  0
  5  8  1  0
  6 10  2  0
  8 13  1  0
 11 12  3  0
 16 19  1  0
 24 25  1  0
 19 27  1  0
 19 28  1  0
 13 20  1  0
  7 18  2  0
 18 17  1  0
 17 16  2  0
 16 15  1  0
 15 14  2  0
 14  7  1  0
 20 21  2  0
 21 22  1  0
 22 23  2  0
 23 24  1  0
 24 26  2  0
 26 20  1  0
M  END

$$$$
No_175-gen_results_new/Mpro_initial_molecule_p3/2024-06-19-20-31-25/
     RDKit          3D

 28 30  0  0  0  0  0  0  0  0999 V2000
  -10.3383   15.1532   67.5971 C   0  0  0  0  0  0  0  0  0  0  0  0
  -10.7220   15.1619   68.8301 N   0  0  0  0  0  0  0  0  0  0  0  0
  -10.4044   16.2024   69.6852 N   0  0  0  0  0  0  0  0  0  0  0  0
   -9.7271   17.3221   69.2607 C   0  0  0  0  0  0  0  0  0  0  0  0
   -9.3095   17.3212   67.9557 N   0  0  0  0  0  0  0  0  0  0  0  0
   -9.5450   16.2958   67.0814 C   0  0  0  0  0  0  0  0  0  0  0  0
  -10.8644   16.0907   71.0374 C   0  0  0  0  0  0  0  0  0  0  0  0
   -8.5330   18.4792   67.4604 C   0  0  0  0  0  0  0  0  0  0  0  0
   -9.5433   18.2987   69.9938 O   0  0  0  0  0  0  0  0  0  0  0  0
   -9.1481   16.2876   65.9124 O   0  0  0  0  0  0  0  0  0  0  0  0
  -10.7304   14.0247   66.8209 C   0  0  0  0  0  0  0  0  0  0  0  0
  -11.1003   13.0895   66.2465 N   0  0  0  0  0  0  0  0  0  0  0  0
   -7.0275   18.2876   67.7219 C   0  0  0  0  0  0  0  0  0  0  0  0
  -10.0126   16.3511   72.1395 C   0  0  0  0  0  0  0  0  0  0  0  0
  -10.4883   16.2212   73.4591 C   0  0  0  0  0  0  0  0  0  0  0  0
  -11.8103   15.8022   73.6966 C   0  0  0  0  0  0  0  0  0  0  0  0
  -12.6594   15.5153   72.6113 C   0  0  0  0  0  0  0  0  0  0  0  0
  -12.1896   15.6561   71.2886 C   0  0  0  0  0  0  0  0  0  0  0  0
  -12.3486   15.5799   75.3255 Cl  0  0  0  0  0  0  0  0  0  0  0  0
   -6.5558   17.2018   67.9045 O   0  0  0  0  0  0  0  0  0  0  0  0
   -6.2800   19.2224   67.1755 N   0  0  0  0  0  0  0  0  0  0  0  0
   -5.1947   19.6532   66.9554 C   0  0  0  0  0  0  0  0  0  0  0  0
   -4.3788   19.9345   68.0509 C   0  0  0  0  0  0  0  0  0  0  0  0
   -2.9826   20.1306   67.7680 N   0  0  0  0  0  0  0  0  0  0  0  0
   -2.6415   20.1500   66.6885 C   0  0  0  0  0  0  0  0  0  0  0  0
   -4.4342   19.6591   65.7637 C   0  0  0  0  0  0  0  0  0  0  0  0
   -1.2083   20.4388   66.5563 N   0  0  0  0  0  0  0  0  0  0  0  0
   -3.1950   19.8215   65.5870 C   0  0  0  0  0  0  0  0  0  0  0  0
  1  2  2  0
  1  6  1  0
  1 11  1  0
  2  3  1  0
  3  4  1  0
  3  7  1  0
  4  9  2  0
  4  5  1  0
  5  6  1  0
  5  8  1  0
  6 10  2  0
  8 13  1  0
 11 12  3  0
 16 19  1  0
 13 20  2  0
 13 21  1  0
 21 22  1  0
 25 27  1  0
  7 18  2  0
 18 17  1  0
 17 16  2  0
 16 15  1  0
 15 14  2  0
 14  7  1  0
 22 23  2  0
 23 24  1  0
 24 25  2  0
 25 28  1  0
 28 26  2  0
 26 22  1  0
M  END

$$$$
No_176-gen_results_new/Mpro_initial_molecule_p3/2024-06-19-20-31-25/
     RDKit          3D

 28 30  0  0  0  0  0  0  0  0999 V2000
  -10.3383   15.1532   67.5971 C   0  0  0  0  0  0  0  0  0  0  0  0
  -10.7220   15.1619   68.8301 N   0  0  0  0  0  0  0  0  0  0  0  0
  -10.4044   16.2024   69.6852 N   0  0  0  0  0  0  0  0  0  0  0  0
   -9.7271   17.3221   69.2607 C   0  0  0  0  0  0  0  0  0  0  0  0
   -9.3095   17.3212   67.9557 N   0  0  0  0  0  0  0  0  0  0  0  0
   -9.5450   16.2958   67.0814 C   0  0  0  0  0  0  0  0  0  0  0  0
  -10.8644   16.0907   71.0374 C   0  0  0  0  0  0  0  0  0  0  0  0
   -8.5330   18.4792   67.4604 C   0  0  0  0  0  0  0  0  0  0  0  0
   -9.5433   18.2987   69.9938 O   0  0  0  0  0  0  0  0  0  0  0  0
   -9.1481   16.2876   65.9124 O   0  0  0  0  0  0  0  0  0  0  0  0
  -10.7304   14.0247   66.8209 C   0  0  0  0  0  0  0  0  0  0  0  0
  -11.1003   13.0895   66.2465 N   0  0  0  0  0  0  0  0  0  0  0  0
   -7.0275   18.2876   67.7219 C   0  0  0  0  0  0  0  0  0  0  0  0
  -10.0126   16.3511   72.1395 C   0  0  0  0  0  0  0  0  0  0  0  0
  -10.4883   16.2212   73.4591 C   0  0  0  0  0  0  0  0  0  0  0  0
  -11.8103   15.8022   73.6966 C   0  0  0  0  0  0  0  0  0  0  0  0
  -12.6594   15.5153   72.6113 C   0  0  0  0  0  0  0  0  0  0  0  0
  -12.1896   15.6561   71.2886 C   0  0  0  0  0  0  0  0  0  0  0  0
  -12.2484   15.6088   75.0145 O   0  0  0  0  0  0  0  0  0  0  0  0
   -6.3059   19.3591   66.9155 C   0  0  0  0  0  0  0  0  0  0  0  0
   -4.9923   19.4463   66.9703 C   0  0  0  0  0  0  0  0  0  0  0  0
   -4.2907   20.4330   66.2898 C   0  0  0  0  0  0  0  0  0  0  0  0
   -4.9709   21.5154   65.8584 C   0  0  0  0  0  0  0  0  0  0  0  0
   -6.3875   21.4522   65.7832 C   0  0  0  0  0  0  0  0  0  0  0  0
   -7.0587   20.4371   66.3781 C   0  0  0  0  0  0  0  0  0  0  0  0
   -4.1822   22.5427   65.2043 N   0  0  0  0  0  0  0  0  0  0  0  0
  -11.8808   16.5238   75.9089 C   0  0  0  0  0  0  0  0  0  0  0  0
  -14.3050   14.8148   72.8367 Cl  0  0  0  0  0  0  0  0  0  0  0  0
  1  2  2  0
  1  6  1  0
  1 11  1  0
  2  3  1  0
  3  4  1  0
  3  7  1  0
  4  9  2  0
  4  5  1  0
  5  6  1  0
  5  8  1  0
  6 10  2  0
  8 13  1  0
 11 12  3  0
 16 19  1  0
 13 20  1  0
 23 26  1  0
 19 27  1  0
 17 28  1  0
 20 21  2  0
 21 22  1  0
 22 23  2  0
 23 24  1  0
 24 25  2  0
 25 20  1  0
  7 18  2  0
 18 17  1  0
 17 16  2  0
 16 15  1  0
 15 14  2  0
 14  7  1  0
M  END

$$$$
No_177-gen_results_new/Mpro_initial_molecule_p3/2024-06-19-20-31-25/
     RDKit          3D

 28 30  0  0  0  0  0  0  0  0999 V2000
  -10.3383   15.1532   67.5971 C   0  0  0  0  0  0  0  0  0  0  0  0
  -10.7220   15.1619   68.8301 N   0  0  0  0  0  0  0  0  0  0  0  0
  -10.4044   16.2024   69.6852 N   0  0  0  0  0  0  0  0  0  0  0  0
   -9.7271   17.3221   69.2607 C   0  0  0  0  0  0  0  0  0  0  0  0
   -9.3095   17.3212   67.9557 N   0  0  0  0  0  0  0  0  0  0  0  0
   -9.5450   16.2958   67.0814 C   0  0  0  0  0  0  0  0  0  0  0  0
  -10.8644   16.0907   71.0374 C   0  0  0  0  0  0  0  0  0  0  0  0
   -8.5330   18.4792   67.4604 C   0  0  0  0  0  0  0  0  0  0  0  0
   -9.5433   18.2987   69.9938 O   0  0  0  0  0  0  0  0  0  0  0  0
   -9.1481   16.2876   65.9124 O   0  0  0  0  0  0  0  0  0  0  0  0
  -10.7304   14.0247   66.8209 C   0  0  0  0  0  0  0  0  0  0  0  0
  -11.1003   13.0895   66.2465 N   0  0  0  0  0  0  0  0  0  0  0  0
   -7.0275   18.2876   67.7219 C   0  0  0  0  0  0  0  0  0  0  0  0
  -10.0126   16.3511   72.1395 C   0  0  0  0  0  0  0  0  0  0  0  0
  -10.4883   16.2212   73.4591 C   0  0  0  0  0  0  0  0  0  0  0  0
  -11.8103   15.8022   73.6966 C   0  0  0  0  0  0  0  0  0  0  0  0
  -12.6594   15.5153   72.6113 C   0  0  0  0  0  0  0  0  0  0  0  0
  -12.1896   15.6561   71.2886 C   0  0  0  0  0  0  0  0  0  0  0  0
  -12.2768   15.6000   75.1088 C   0  0  0  0  0  0  0  0  0  0  0  0
   -6.3059   19.3590   66.9154 C   0  0  0  0  0  0  0  0  0  0  0  0
   -4.9893   19.4432   66.9685 C   0  0  0  0  0  0  0  0  0  0  0  0
   -4.2710   18.3392   67.6545 C   0  0  0  0  0  0  0  0  0  0  0  0
   -5.0431   17.2552   68.3050 C   0  0  0  0  0  0  0  0  0  0  0  0
   -6.4246   17.2337   68.1850 C   0  0  0  0  0  0  0  0  0  0  0  0
  -12.3524   14.5924   75.5996 O   0  0  0  0  0  0  0  0  0  0  0  0
  -12.2296   16.6683   75.8379 O   0  0  0  0  0  0  0  0  0  0  0  0
   -4.2614   20.3553   66.4190 N   0  0  0  0  0  0  0  0  0  0  0  0
   -2.9157   20.4015   66.5403 C   0  0  0  0  0  0  0  0  0  0  0  0
  1  2  2  0
  1  6  1  0
  1 11  1  0
  2  3  1  0
  3  4  1  0
  3  7  1  0
  4  9  2  0
  4  5  1  0
  5  6  1  0
  5  8  1  0
  6 10  2  0
  8 13  1  0
 11 12  3  0
 16 19  1  0
 19 25  2  0
 19 26  1  0
 21 27  1  0
 27 28  1  0
 13 20  2  0
 20 21  1  0
 21 22  2  0
 22 23  1  0
 23 24  2  0
 24 13  1  0
  7 18  2  0
 18 17  1  0
 17 16  2  0
 16 15  1  0
 15 14  2  0
 14  7  1  0
M  END

$$$$
No_178-gen_results_new/Mpro_initial_molecule_p3/2024-06-19-20-31-25/
     RDKit          3D

 28 30  0  0  0  0  0  0  0  0999 V2000
  -10.3383   15.1532   67.5971 C   0  0  0  0  0  0  0  0  0  0  0  0
  -10.7220   15.1619   68.8301 N   0  0  0  0  0  0  0  0  0  0  0  0
  -10.4044   16.2024   69.6852 N   0  0  0  0  0  0  0  0  0  0  0  0
   -9.7271   17.3221   69.2607 C   0  0  0  0  0  0  0  0  0  0  0  0
   -9.3095   17.3212   67.9557 N   0  0  0  0  0  0  0  0  0  0  0  0
   -9.5450   16.2958   67.0814 C   0  0  0  0  0  0  0  0  0  0  0  0
  -10.8644   16.0907   71.0374 C   0  0  0  0  0  0  0  0  0  0  0  0
   -8.5330   18.4792   67.4604 C   0  0  0  0  0  0  0  0  0  0  0  0
   -9.5433   18.2987   69.9938 O   0  0  0  0  0  0  0  0  0  0  0  0
   -9.1481   16.2876   65.9124 O   0  0  0  0  0  0  0  0  0  0  0  0
  -10.7304   14.0247   66.8209 C   0  0  0  0  0  0  0  0  0  0  0  0
  -11.1003   13.0895   66.2465 N   0  0  0  0  0  0  0  0  0  0  0  0
   -7.0275   18.2876   67.7219 C   0  0  0  0  0  0  0  0  0  0  0  0
  -10.0126   16.3511   72.1395 C   0  0  0  0  0  0  0  0  0  0  0  0
  -10.4883   16.2212   73.4591 C   0  0  0  0  0  0  0  0  0  0  0  0
  -11.8103   15.8022   73.6966 C   0  0  0  0  0  0  0  0  0  0  0  0
  -12.6594   15.5153   72.6113 C   0  0  0  0  0  0  0  0  0  0  0  0
  -12.1896   15.6561   71.2886 C   0  0  0  0  0  0  0  0  0  0  0  0
  -12.2768   15.6000   75.1088 C   0  0  0  0  0  0  0  0  0  0  0  0
   -6.4522   19.3092   67.8826 C   0  0  0  0  0  0  0  0  0  0  0  0
  -12.5808   16.5955   75.6954 O   0  0  0  0  0  0  0  0  0  0  0  0
  -12.1193   14.5206   75.6006 O   0  0  0  0  0  0  0  0  0  0  0  0
   -6.3899   20.4081   67.0288 C   0  0  0  0  0  0  0  0  0  0  0  0
   -5.2339   21.2084   66.8387 C   0  0  0  0  0  0  0  0  0  0  0  0
   -4.1173   20.6305   67.3344 C   0  0  0  0  0  0  0  0  0  0  0  0
   -3.9549   19.7131   68.2122 N   0  0  0  0  0  0  0  0  0  0  0  0
   -5.0125   18.8186   68.3496 C   0  0  0  0  0  0  0  0  0  0  0  0
   -4.8621   17.6986   69.2037 C   0  0  0  0  0  0  0  0  0  0  0  0
  1  2  2  0
  1  6  1  0
  1 11  1  0
  2  3  1  0
  3  4  1  0
  3  7  1  0
  4  9  2  0
  4  5  1  0
  5  6  1  0
  5  8  1  0
  6 10  2  0
  8 13  1  0
 11 12  3  0
 16 19  1  0
 13 20  1  0
 19 21  2  0
 19 22  1  0
 27 28  1  0
 20 23  2  0
 23 24  1  0
 24 25  2  0
 25 26  1  0
 26 27  2  0
 27 20  1  0
  7 18  2  0
 18 17  1  0
 17 16  2  0
 16 15  1  0
 15 14  2  0
 14  7  1  0
M  END

$$$$
No_179-gen_results_new/Mpro_initial_molecule_p3/2024-06-19-20-31-25/
     RDKit          3D

 28 30  0  0  0  0  0  0  0  0999 V2000
  -10.3383   15.1532   67.5971 C   0  0  0  0  0  0  0  0  0  0  0  0
  -10.7220   15.1619   68.8301 N   0  0  0  0  0  0  0  0  0  0  0  0
  -10.4044   16.2024   69.6852 N   0  0  0  0  0  0  0  0  0  0  0  0
   -9.7271   17.3221   69.2607 C   0  0  0  0  0  0  0  0  0  0  0  0
   -9.3095   17.3212   67.9557 N   0  0  0  0  0  0  0  0  0  0  0  0
   -9.5450   16.2958   67.0814 C   0  0  0  0  0  0  0  0  0  0  0  0
  -10.8644   16.0907   71.0374 C   0  0  0  0  0  0  0  0  0  0  0  0
   -8.5330   18.4792   67.4604 C   0  0  0  0  0  0  0  0  0  0  0  0
   -9.5433   18.2987   69.9938 O   0  0  0  0  0  0  0  0  0  0  0  0
   -9.1481   16.2876   65.9124 O   0  0  0  0  0  0  0  0  0  0  0  0
  -10.7304   14.0247   66.8209 C   0  0  0  0  0  0  0  0  0  0  0  0
  -11.1003   13.0895   66.2465 N   0  0  0  0  0  0  0  0  0  0  0  0
   -7.0275   18.2876   67.7219 C   0  0  0  0  0  0  0  0  0  0  0  0
  -10.0126   16.3511   72.1395 C   0  0  0  0  0  0  0  0  0  0  0  0
  -10.4883   16.2212   73.4591 C   0  0  0  0  0  0  0  0  0  0  0  0
  -11.8103   15.8022   73.6966 C   0  0  0  0  0  0  0  0  0  0  0  0
  -12.6594   15.5153   72.6113 C   0  0  0  0  0  0  0  0  0  0  0  0
  -12.1896   15.6561   71.2886 C   0  0  0  0  0  0  0  0  0  0  0  0
  -12.2768   15.6000   75.1088 C   0  0  0  0  0  0  0  0  0  0  0  0
   -6.5341   17.3729   68.3685 C   0  0  0  0  0  0  0  0  0  0  0  0
   -5.1308   17.1882   68.5568 C   0  0  0  0  0  0  0  0  0  0  0  0
   -6.2282   19.1886   66.9092 C   0  0  0  0  0  0  0  0  0  0  0  0
   -4.8273   19.0035   67.0391 C   0  0  0  0  0  0  0  0  0  0  0  0
   -4.3060   18.0195   67.7979 C   0  0  0  0  0  0  0  0  0  0  0  0
  -12.3528   14.5927   75.5997 O   0  0  0  0  0  0  0  0  0  0  0  0
  -12.4570   16.7015   75.7579 O   0  0  0  0  0  0  0  0  0  0  0  0
   -6.7604   20.1930   66.1162 O   0  0  0  0  0  0  0  0  0  0  0  0
  -14.0791   14.9558   72.8153 C   0  0  0  0  0  0  0  0  0  0  0  0
  1  2  2  0
  1  6  1  0
  1 11  1  0
  2  3  1  0
  3  4  1  0
  3  7  1  0
  4  9  2  0
  4  5  1  0
  5  6  1  0
  5  8  1  0
  6 10  2  0
  8 13  1  0
 11 12  3  0
 16 19  1  0
 19 25  2  0
 19 26  1  0
 22 27  1  0
 17 28  1  0
 13 20  2  0
 20 21  1  0
 21 24  2  0
 24 23  1  0
 23 22  2  0
 22 13  1  0
  7 18  2  0
 18 17  1  0
 17 16  2  0
 16 15  1  0
 15 14  2  0
 14  7  1  0
M  END

$$$$
No_180-gen_results_new/Mpro_initial_molecule_p3/2024-06-19-20-31-25/
     RDKit          3D

 28 30  0  0  0  0  0  0  0  0999 V2000
  -10.3383   15.1532   67.5971 C   0  0  0  0  0  0  0  0  0  0  0  0
  -10.7220   15.1619   68.8301 N   0  0  0  0  0  0  0  0  0  0  0  0
  -10.4044   16.2024   69.6852 N   0  0  0  0  0  0  0  0  0  0  0  0
   -9.7271   17.3221   69.2607 C   0  0  0  0  0  0  0  0  0  0  0  0
   -9.3095   17.3212   67.9557 N   0  0  0  0  0  0  0  0  0  0  0  0
   -9.5450   16.2958   67.0814 C   0  0  0  0  0  0  0  0  0  0  0  0
  -10.8644   16.0907   71.0374 C   0  0  0  0  0  0  0  0  0  0  0  0
   -8.5330   18.4792   67.4604 C   0  0  0  0  0  0  0  0  0  0  0  0
   -9.5433   18.2987   69.9938 O   0  0  0  0  0  0  0  0  0  0  0  0
   -9.1481   16.2876   65.9124 O   0  0  0  0  0  0  0  0  0  0  0  0
  -10.7304   14.0247   66.8209 C   0  0  0  0  0  0  0  0  0  0  0  0
  -11.1003   13.0895   66.2465 N   0  0  0  0  0  0  0  0  0  0  0  0
   -7.0275   18.2876   67.7219 C   0  0  0  0  0  0  0  0  0  0  0  0
  -10.0126   16.3511   72.1395 C   0  0  0  0  0  0  0  0  0  0  0  0
  -10.4883   16.2212   73.4591 C   0  0  0  0  0  0  0  0  0  0  0  0
  -11.8103   15.8022   73.6966 C   0  0  0  0  0  0  0  0  0  0  0  0
  -12.6594   15.5153   72.6113 C   0  0  0  0  0  0  0  0  0  0  0  0
  -12.1896   15.6561   71.2886 C   0  0  0  0  0  0  0  0  0  0  0  0
  -12.2768   15.6000   75.1088 C   0  0  0  0  0  0  0  0  0  0  0  0
   -6.5341   17.3729   68.3685 C   0  0  0  0  0  0  0  0  0  0  0  0
   -5.1308   17.1882   68.5568 C   0  0  0  0  0  0  0  0  0  0  0  0
   -6.2352   18.5841   66.5228 C   0  0  0  0  0  0  0  0  0  0  0  0
   -4.8738   18.3561   66.5020 C   0  0  0  0  0  0  0  0  0  0  0  0
   -4.3443   17.5536   67.4637 C   0  0  0  0  0  0  0  0  0  0  0  0
  -12.5216   16.2828   75.8666 N   0  0  0  0  0  0  0  0  0  0  0  0
  -12.1762   14.3336   75.4483 O   0  0  0  0  0  0  0  0  0  0  0  0
   -2.9634   17.2325   67.3933 N   0  0  0  0  0  0  0  0  0  0  0  0
   -2.4599   16.1564   67.5710 C   0  0  0  0  0  0  0  0  0  0  0  0
  1  2  2  0
  1  6  1  0
  1 11  1  0
  2  3  1  0
  3  4  1  0
  3  7  1  0
  4  9  2  0
  4  5  1  0
  5  6  1  0
  5  8  1  0
  6 10  2  0
  8 13  1  0
 11 12  3  0
 16 19  1  0
 19 25  1  0
 19 26  2  0
 24 27  1  0
 27 28  1  0
 13 20  2  0
 20 21  1  0
 21 24  2  0
 24 23  1  0
 23 22  2  0
 22 13  1  0
  7 18  2  0
 18 17  1  0
 17 16  2  0
 16 15  1  0
 15 14  2  0
 14  7  1  0
M  END

$$$$
No_181-gen_results_new/Mpro_initial_molecule_p3/2024-06-19-20-31-25/
     RDKit          3D

 28 30  0  0  0  0  0  0  0  0999 V2000
  -10.3383   15.1532   67.5971 C   0  0  0  0  0  0  0  0  0  0  0  0
  -10.7220   15.1619   68.8301 N   0  0  0  0  0  0  0  0  0  0  0  0
  -10.4044   16.2024   69.6852 N   0  0  0  0  0  0  0  0  0  0  0  0
   -9.7271   17.3221   69.2607 C   0  0  0  0  0  0  0  0  0  0  0  0
   -9.3095   17.3212   67.9557 N   0  0  0  0  0  0  0  0  0  0  0  0
   -9.5450   16.2958   67.0814 C   0  0  0  0  0  0  0  0  0  0  0  0
  -10.8644   16.0907   71.0374 C   0  0  0  0  0  0  0  0  0  0  0  0
   -8.5330   18.4792   67.4604 C   0  0  0  0  0  0  0  0  0  0  0  0
   -9.5433   18.2987   69.9938 O   0  0  0  0  0  0  0  0  0  0  0  0
   -9.1481   16.2876   65.9124 O   0  0  0  0  0  0  0  0  0  0  0  0
  -10.7304   14.0247   66.8209 C   0  0  0  0  0  0  0  0  0  0  0  0
  -11.1003   13.0895   66.2465 N   0  0  0  0  0  0  0  0  0  0  0  0
   -7.0275   18.2876   67.7219 C   0  0  0  0  0  0  0  0  0  0  0  0
  -10.0126   16.3511   72.1395 C   0  0  0  0  0  0  0  0  0  0  0  0
  -10.4883   16.2212   73.4591 C   0  0  0  0  0  0  0  0  0  0  0  0
  -11.8103   15.8022   73.6966 C   0  0  0  0  0  0  0  0  0  0  0  0
  -12.6594   15.5153   72.6113 C   0  0  0  0  0  0  0  0  0  0  0  0
  -12.1896   15.6561   71.2886 C   0  0  0  0  0  0  0  0  0  0  0  0
  -12.2768   15.6000   75.1088 C   0  0  0  0  0  0  0  0  0  0  0  0
   -6.5341   17.3729   68.3685 C   0  0  0  0  0  0  0  0  0  0  0  0
   -5.1308   17.1882   68.5568 C   0  0  0  0  0  0  0  0  0  0  0  0
   -6.2282   19.1886   66.9092 C   0  0  0  0  0  0  0  0  0  0  0  0
   -4.8273   19.0035   67.0391 C   0  0  0  0  0  0  0  0  0  0  0  0
   -4.3060   18.0195   67.7979 C   0  0  0  0  0  0  0  0  0  0  0  0
  -12.3528   14.5927   75.5997 O   0  0  0  0  0  0  0  0  0  0  0  0
  -12.4570   16.7015   75.7579 O   0  0  0  0  0  0  0  0  0  0  0  0
   -7.0692   20.3834   65.9363 S   0  0  0  0  0  0  0  0  0  0  0  0
   -8.7032   20.0032   66.2882 C   0  0  0  0  0  0  0  0  0  0  0  0
  1  2  2  0
  1  6  1  0
  1 11  1  0
  2  3  1  0
  3  4  1  0
  3  7  1  0
  4  9  2  0
  4  5  1  0
  5  6  1  0
  5  8  1  0
  6 10  2  0
  8 13  1  0
 11 12  3  0
 16 19  1  0
 19 25  2  0
 19 26  1  0
 22 27  1  0
 27 28  1  0
 13 20  2  0
 20 21  1  0
 21 24  2  0
 24 23  1  0
 23 22  2  0
 22 13  1  0
  7 18  2  0
 18 17  1  0
 17 16  2  0
 16 15  1  0
 15 14  2  0
 14  7  1  0
M  END

$$$$
No_182-gen_results_new/Mpro_initial_molecule_p3/2024-06-19-20-31-25/
     RDKit          3D

 28 30  0  0  0  0  0  0  0  0999 V2000
  -10.3383   15.1532   67.5971 C   0  0  0  0  0  0  0  0  0  0  0  0
  -10.7220   15.1619   68.8301 N   0  0  0  0  0  0  0  0  0  0  0  0
  -10.4044   16.2024   69.6852 N   0  0  0  0  0  0  0  0  0  0  0  0
   -9.7271   17.3221   69.2607 C   0  0  0  0  0  0  0  0  0  0  0  0
   -9.3095   17.3212   67.9557 N   0  0  0  0  0  0  0  0  0  0  0  0
   -9.5450   16.2958   67.0814 C   0  0  0  0  0  0  0  0  0  0  0  0
  -10.8644   16.0907   71.0374 C   0  0  0  0  0  0  0  0  0  0  0  0
   -8.5330   18.4792   67.4604 C   0  0  0  0  0  0  0  0  0  0  0  0
   -9.5433   18.2987   69.9938 O   0  0  0  0  0  0  0  0  0  0  0  0
   -9.1481   16.2876   65.9124 O   0  0  0  0  0  0  0  0  0  0  0  0
  -10.7304   14.0247   66.8209 C   0  0  0  0  0  0  0  0  0  0  0  0
  -11.1003   13.0895   66.2465 N   0  0  0  0  0  0  0  0  0  0  0  0
   -7.0275   18.2876   67.7219 C   0  0  0  0  0  0  0  0  0  0  0  0
  -10.0126   16.3511   72.1395 C   0  0  0  0  0  0  0  0  0  0  0  0
  -10.4883   16.2212   73.4591 C   0  0  0  0  0  0  0  0  0  0  0  0
  -11.8103   15.8022   73.6966 C   0  0  0  0  0  0  0  0  0  0  0  0
  -12.6594   15.5153   72.6113 C   0  0  0  0  0  0  0  0  0  0  0  0
  -12.1896   15.6561   71.2886 C   0  0  0  0  0  0  0  0  0  0  0  0
  -12.3486   15.5799   75.3255 Cl  0  0  0  0  0  0  0  0  0  0  0  0
   -6.5344   17.3734   68.3696 C   0  0  0  0  0  0  0  0  0  0  0  0
   -5.1249   17.1828   68.5820 C   0  0  0  0  0  0  0  0  0  0  0  0
   -4.2977   17.9476   67.7740 C   0  0  0  0  0  0  0  0  0  0  0  0
   -4.8005   18.8999   66.9631 C   0  0  0  0  0  0  0  0  0  0  0  0
   -6.2036   19.0657   66.8222 C   0  0  0  0  0  0  0  0  0  0  0  0
  -14.1198   14.9542   72.8038 C   0  0  0  0  0  0  0  0  0  0  0  0
   -6.7527   20.0010   65.9534 O   0  0  0  0  0  0  0  0  0  0  0  0
   -5.8944   20.5615   64.9989 C   0  0  0  0  0  0  0  0  0  0  0  0
   -4.7689   21.0654   65.1892 C   0  0  0  0  0  0  0  0  0  0  0  0
  1  2  2  0
  1  6  1  0
  1 11  1  0
  2  3  1  0
  3  4  1  0
  3  7  1  0
  4  9  2  0
  4  5  1  0
  5  6  1  0
  5  8  1  0
  6 10  2  0
  8 13  1  0
 11 12  3  0
 16 19  1  0
 17 25  1  0
 24 26  1  0
 26 27  1  0
 27 28  1  0
 13 20  2  0
 20 21  1  0
 21 22  2  0
 22 23  1  0
 23 24  2  0
 24 13  1  0
  7 18  2  0
 18 17  1  0
 17 16  2  0
 16 15  1  0
 15 14  2  0
 14  7  1  0
M  END

$$$$
No_183-gen_results_new/Mpro_initial_molecule_p3/2024-06-19-20-31-25/
     RDKit          3D

 28 30  0  0  0  0  0  0  0  0999 V2000
  -10.3383   15.1532   67.5971 C   0  0  0  0  0  0  0  0  0  0  0  0
  -10.7220   15.1619   68.8301 N   0  0  0  0  0  0  0  0  0  0  0  0
  -10.4044   16.2024   69.6852 N   0  0  0  0  0  0  0  0  0  0  0  0
   -9.7271   17.3221   69.2607 C   0  0  0  0  0  0  0  0  0  0  0  0
   -9.3095   17.3212   67.9557 N   0  0  0  0  0  0  0  0  0  0  0  0
   -9.5450   16.2958   67.0814 C   0  0  0  0  0  0  0  0  0  0  0  0
  -10.8644   16.0907   71.0374 C   0  0  0  0  0  0  0  0  0  0  0  0
   -8.5330   18.4792   67.4604 C   0  0  0  0  0  0  0  0  0  0  0  0
   -9.5433   18.2987   69.9938 O   0  0  0  0  0  0  0  0  0  0  0  0
   -9.1481   16.2876   65.9124 O   0  0  0  0  0  0  0  0  0  0  0  0
  -10.7304   14.0247   66.8209 C   0  0  0  0  0  0  0  0  0  0  0  0
  -11.1003   13.0895   66.2465 N   0  0  0  0  0  0  0  0  0  0  0  0
   -7.0275   18.2876   67.7219 C   0  0  0  0  0  0  0  0  0  0  0  0
  -10.0126   16.3511   72.1395 C   0  0  0  0  0  0  0  0  0  0  0  0
  -10.4883   16.2212   73.4591 C   0  0  0  0  0  0  0  0  0  0  0  0
  -11.8103   15.8022   73.6966 C   0  0  0  0  0  0  0  0  0  0  0  0
  -12.6594   15.5153   72.6113 C   0  0  0  0  0  0  0  0  0  0  0  0
  -12.1896   15.6561   71.2886 C   0  0  0  0  0  0  0  0  0  0  0  0
  -12.2768   15.6000   75.1088 C   0  0  0  0  0  0  0  0  0  0  0  0
   -6.3059   19.3590   66.9154 C   0  0  0  0  0  0  0  0  0  0  0  0
   -4.9893   19.4432   66.9685 C   0  0  0  0  0  0  0  0  0  0  0  0
   -4.2885   20.4304   66.2887 C   0  0  0  0  0  0  0  0  0  0  0  0
   -4.9684   21.5145   65.8586 C   0  0  0  0  0  0  0  0  0  0  0  0
   -6.3744   21.4842   65.8345 C   0  0  0  0  0  0  0  0  0  0  0  0
   -7.0549   20.4513   66.4027 C   0  0  0  0  0  0  0  0  0  0  0  0
  -12.3532   14.5920   75.5994 O   0  0  0  0  0  0  0  0  0  0  0  0
  -12.4568   16.7008   75.7589 O   0  0  0  0  0  0  0  0  0  0  0  0
   -4.1772   22.5484   65.2265 N   0  0  0  0  0  0  0  0  0  0  0  0
  1  2  2  0
  1  6  1  0
  1 11  1  0
  2  3  1  0
  3  4  1  0
  3  7  1  0
  4  9  2  0
  4  5  1  0
  5  6  1  0
  5  8  1  0
  6 10  2  0
  8 13  1  0
 11 12  3  0
 16 19  1  0
 13 20  1  0
 19 26  2  0
 19 27  1  0
 23 28  1  0
 20 21  2  0
 21 22  1  0
 22 23  2  0
 23 24  1  0
 24 25  2  0
 25 20  1  0
  7 18  2  0
 18 17  1  0
 17 16  2  0
 16 15  1  0
 15 14  2  0
 14  7  1  0
M  END

$$$$
No_184-gen_results_new/Mpro_initial_molecule_p3/2024-06-19-20-31-25/
     RDKit          3D

 28 30  0  0  0  0  0  0  0  0999 V2000
  -10.3383   15.1532   67.5971 C   0  0  0  0  0  0  0  0  0  0  0  0
  -10.7220   15.1619   68.8301 N   0  0  0  0  0  0  0  0  0  0  0  0
  -10.4044   16.2024   69.6852 N   0  0  0  0  0  0  0  0  0  0  0  0
   -9.7271   17.3221   69.2607 C   0  0  0  0  0  0  0  0  0  0  0  0
   -9.3095   17.3212   67.9557 N   0  0  0  0  0  0  0  0  0  0  0  0
   -9.5450   16.2958   67.0814 C   0  0  0  0  0  0  0  0  0  0  0  0
  -10.8644   16.0907   71.0374 C   0  0  0  0  0  0  0  0  0  0  0  0
   -8.5330   18.4792   67.4604 C   0  0  0  0  0  0  0  0  0  0  0  0
   -9.5433   18.2987   69.9938 O   0  0  0  0  0  0  0  0  0  0  0  0
   -9.1481   16.2876   65.9124 O   0  0  0  0  0  0  0  0  0  0  0  0
  -10.7304   14.0247   66.8209 C   0  0  0  0  0  0  0  0  0  0  0  0
  -11.1003   13.0895   66.2465 N   0  0  0  0  0  0  0  0  0  0  0  0
   -7.0275   18.2876   67.7219 C   0  0  0  0  0  0  0  0  0  0  0  0
  -10.0126   16.3511   72.1395 C   0  0  0  0  0  0  0  0  0  0  0  0
  -10.4883   16.2212   73.4591 C   0  0  0  0  0  0  0  0  0  0  0  0
  -11.8103   15.8022   73.6966 C   0  0  0  0  0  0  0  0  0  0  0  0
  -12.6594   15.5153   72.6113 C   0  0  0  0  0  0  0  0  0  0  0  0
  -12.1896   15.6561   71.2886 C   0  0  0  0  0  0  0  0  0  0  0  0
  -12.3486   15.5799   75.3255 Cl  0  0  0  0  0  0  0  0  0  0  0  0
   -6.3058   19.3592   66.9157 C   0  0  0  0  0  0  0  0  0  0  0  0
   -4.9894   19.4433   66.9687 C   0  0  0  0  0  0  0  0  0  0  0  0
   -4.2710   18.3392   67.6547 C   0  0  0  0  0  0  0  0  0  0  0  0
   -5.0430   17.2550   68.3049 C   0  0  0  0  0  0  0  0  0  0  0  0
   -6.4241   17.2326   68.1847 C   0  0  0  0  0  0  0  0  0  0  0  0
   -4.2029   20.4288   66.3810 C   0  0  0  0  0  0  0  0  0  0  0  0
   -4.5387   21.5675   66.6531 O   0  0  0  0  0  0  0  0  0  0  0  0
   -3.1152   20.2258   65.8410 O   0  0  0  0  0  0  0  0  0  0  0  0
  -14.0278   15.0076   72.7867 O   0  0  0  0  0  0  0  0  0  0  0  0
  1  2  2  0
  1  6  1  0
  1 11  1  0
  2  3  1  0
  3  4  1  0
  3  7  1  0
  4  9  2  0
  4  5  1  0
  5  6  1  0
  5  8  1  0
  6 10  2  0
  8 13  1  0
 11 12  3  0
 16 19  1  0
 21 25  1  0
 25 26  2  0
 25 27  1  0
 17 28  1  0
 13 20  2  0
 20 21  1  0
 21 22  2  0
 22 23  1  0
 23 24  2  0
 24 13  1  0
  7 18  2  0
 18 17  1  0
 17 16  2  0
 16 15  1  0
 15 14  2  0
 14  7  1  0
M  END

$$$$
No_185-gen_results_new/Mpro_initial_molecule_p3/2024-06-19-20-31-25/
     RDKit          3D

 28 30  0  0  0  0  0  0  0  0999 V2000
  -10.3383   15.1532   67.5971 C   0  0  0  0  0  0  0  0  0  0  0  0
  -10.7220   15.1619   68.8301 N   0  0  0  0  0  0  0  0  0  0  0  0
  -10.4044   16.2024   69.6852 N   0  0  0  0  0  0  0  0  0  0  0  0
   -9.7271   17.3221   69.2607 C   0  0  0  0  0  0  0  0  0  0  0  0
   -9.3095   17.3212   67.9557 N   0  0  0  0  0  0  0  0  0  0  0  0
   -9.5450   16.2958   67.0814 C   0  0  0  0  0  0  0  0  0  0  0  0
  -10.8644   16.0907   71.0374 C   0  0  0  0  0  0  0  0  0  0  0  0
   -8.5330   18.4792   67.4604 C   0  0  0  0  0  0  0  0  0  0  0  0
   -9.5433   18.2987   69.9938 O   0  0  0  0  0  0  0  0  0  0  0  0
   -9.1481   16.2876   65.9124 O   0  0  0  0  0  0  0  0  0  0  0  0
  -10.7304   14.0247   66.8209 C   0  0  0  0  0  0  0  0  0  0  0  0
  -11.1003   13.0895   66.2465 N   0  0  0  0  0  0  0  0  0  0  0  0
   -7.0275   18.2876   67.7219 C   0  0  0  0  0  0  0  0  0  0  0  0
  -10.0126   16.3511   72.1395 C   0  0  0  0  0  0  0  0  0  0  0  0
  -10.4883   16.2212   73.4591 C   0  0  0  0  0  0  0  0  0  0  0  0
  -11.8103   15.8022   73.6966 C   0  0  0  0  0  0  0  0  0  0  0  0
  -12.6594   15.5153   72.6113 C   0  0  0  0  0  0  0  0  0  0  0  0
  -12.1896   15.6561   71.2886 C   0  0  0  0  0  0  0  0  0  0  0  0
  -12.2484   15.6088   75.0145 O   0  0  0  0  0  0  0  0  0  0  0  0
   -6.5557   17.2016   67.9039 O   0  0  0  0  0  0  0  0  0  0  0  0
   -6.3089   19.3657   67.4559 N   0  0  0  0  0  0  0  0  0  0  0  0
   -5.0863   19.8319   67.3907 C   0  0  0  0  0  0  0  0  0  0  0  0
   -4.5264   19.9588   66.2190 C   0  0  0  0  0  0  0  0  0  0  0  0
   -5.0940   20.5951   65.1678 C   0  0  0  0  0  0  0  0  0  0  0  0
   -4.4803   20.8620   63.9476 C   0  0  0  0  0  0  0  0  0  0  0  0
   -3.1814   20.3634   63.7365 C   0  0  0  0  0  0  0  0  0  0  0  0
   -3.1611   19.6416   65.9948 C   0  0  0  0  0  0  0  0  0  0  0  0
   -2.5005   19.7724   64.7572 C   0  0  0  0  0  0  0  0  0  0  0  0
  1  2  2  0
  1  6  1  0
  1 11  1  0
  2  3  1  0
  3  4  1  0
  3  7  1  0
  4  9  2  0
  4  5  1  0
  5  6  1  0
  5  8  1  0
  6 10  2  0
  8 13  1  0
 11 12  3  0
 16 19  1  0
 13 20  2  0
 13 21  1  0
 21 22  1  0
 22 23  1  0
 23 24  2  0
 24 25  1  0
 25 26  2  0
 26 28  1  0
 28 27  2  0
 27 23  1  0
  7 18  2  0
 18 17  1  0
 17 16  2  0
 16 15  1  0
 15 14  2  0
 14  7  1  0
M  END

$$$$
No_186-gen_results_new/Mpro_initial_molecule_p3/2024-06-19-20-31-25/
     RDKit          3D

 28 30  0  0  0  0  0  0  0  0999 V2000
  -10.3383   15.1532   67.5971 C   0  0  0  0  0  0  0  0  0  0  0  0
  -10.7220   15.1619   68.8301 N   0  0  0  0  0  0  0  0  0  0  0  0
  -10.4044   16.2024   69.6852 N   0  0  0  0  0  0  0  0  0  0  0  0
   -9.7271   17.3221   69.2607 C   0  0  0  0  0  0  0  0  0  0  0  0
   -9.3095   17.3212   67.9557 N   0  0  0  0  0  0  0  0  0  0  0  0
   -9.5450   16.2958   67.0814 C   0  0  0  0  0  0  0  0  0  0  0  0
  -10.8644   16.0907   71.0374 C   0  0  0  0  0  0  0  0  0  0  0  0
   -8.5330   18.4792   67.4604 C   0  0  0  0  0  0  0  0  0  0  0  0
   -9.5433   18.2987   69.9938 O   0  0  0  0  0  0  0  0  0  0  0  0
   -9.1481   16.2876   65.9124 O   0  0  0  0  0  0  0  0  0  0  0  0
  -10.7304   14.0247   66.8209 C   0  0  0  0  0  0  0  0  0  0  0  0
  -11.1003   13.0895   66.2465 N   0  0  0  0  0  0  0  0  0  0  0  0
   -7.0275   18.2876   67.7219 C   0  0  0  0  0  0  0  0  0  0  0  0
  -10.0126   16.3511   72.1395 C   0  0  0  0  0  0  0  0  0  0  0  0
  -10.4883   16.2212   73.4591 C   0  0  0  0  0  0  0  0  0  0  0  0
  -11.8103   15.8022   73.6966 C   0  0  0  0  0  0  0  0  0  0  0  0
  -12.6594   15.5153   72.6113 C   0  0  0  0  0  0  0  0  0  0  0  0
  -12.1896   15.6561   71.2886 C   0  0  0  0  0  0  0  0  0  0  0  0
  -12.3486   15.5799   75.3255 Cl  0  0  0  0  0  0  0  0  0  0  0  0
   -6.3058   19.3592   66.9157 C   0  0  0  0  0  0  0  0  0  0  0  0
   -4.9259   19.3482   66.9560 C   0  0  0  0  0  0  0  0  0  0  0  0
   -4.3007   18.5064   67.6160 C   0  0  0  0  0  0  0  0  0  0  0  0
   -5.0246   17.3179   68.3254 C   0  0  0  0  0  0  0  0  0  0  0  0
   -6.4332   17.2648   68.2321 C   0  0  0  0  0  0  0  0  0  0  0  0
   -4.2703   20.3351   66.3268 N   0  0  0  0  0  0  0  0  0  0  0  0
   -4.6821   21.5510   66.2129 C   0  0  0  0  0  0  0  0  0  0  0  0
   -3.7950   22.3913   65.4925 N   0  0  0  0  0  0  0  0  0  0  0  0
   -5.6611   21.9744   66.7007 O   0  0  0  0  0  0  0  0  0  0  0  0
  1  2  2  0
  1  6  1  0
  1 11  1  0
  2  3  1  0
  3  4  1  0
  3  7  1  0
  4  9  2  0
  4  5  1  0
  5  6  1  0
  5  8  1  0
  6 10  2  0
  8 13  1  0
 11 12  3  0
 16 19  1  0
 21 25  1  0
 25 26  1  0
 26 27  1  0
 26 28  2  0
 13 20  2  0
 20 21  1  0
 21 22  2  0
 22 23  1  0
 23 24  2  0
 24 13  1  0
  7 18  2  0
 18 17  1  0
 17 16  2  0
 16 15  1  0
 15 14  2  0
 14  7  1  0
M  END

$$$$
No_187-gen_results_new/Mpro_initial_molecule_p3/2024-06-19-20-31-25/
     RDKit          3D

 28 30  0  0  0  0  0  0  0  0999 V2000
  -10.3383   15.1532   67.5971 C   0  0  0  0  0  0  0  0  0  0  0  0
  -10.7220   15.1619   68.8301 N   0  0  0  0  0  0  0  0  0  0  0  0
  -10.4044   16.2024   69.6852 N   0  0  0  0  0  0  0  0  0  0  0  0
   -9.7271   17.3221   69.2607 C   0  0  0  0  0  0  0  0  0  0  0  0
   -9.3095   17.3212   67.9557 N   0  0  0  0  0  0  0  0  0  0  0  0
   -9.5450   16.2958   67.0814 C   0  0  0  0  0  0  0  0  0  0  0  0
  -10.8644   16.0907   71.0374 C   0  0  0  0  0  0  0  0  0  0  0  0
   -8.5330   18.4792   67.4604 C   0  0  0  0  0  0  0  0  0  0  0  0
   -9.5433   18.2987   69.9938 O   0  0  0  0  0  0  0  0  0  0  0  0
   -9.1481   16.2876   65.9124 O   0  0  0  0  0  0  0  0  0  0  0  0
  -10.7304   14.0247   66.8209 C   0  0  0  0  0  0  0  0  0  0  0  0
  -11.1003   13.0895   66.2465 N   0  0  0  0  0  0  0  0  0  0  0  0
   -7.0275   18.2876   67.7219 C   0  0  0  0  0  0  0  0  0  0  0  0
  -10.0126   16.3511   72.1395 C   0  0  0  0  0  0  0  0  0  0  0  0
  -10.4883   16.2212   73.4591 C   0  0  0  0  0  0  0  0  0  0  0  0
  -11.8103   15.8022   73.6966 C   0  0  0  0  0  0  0  0  0  0  0  0
  -12.6594   15.5153   72.6113 C   0  0  0  0  0  0  0  0  0  0  0  0
  -12.1896   15.6561   71.2886 C   0  0  0  0  0  0  0  0  0  0  0  0
  -12.2768   15.6000   75.1088 C   0  0  0  0  0  0  0  0  0  0  0  0
   -6.5341   17.3729   68.3685 C   0  0  0  0  0  0  0  0  0  0  0  0
   -5.1308   17.1882   68.5568 C   0  0  0  0  0  0  0  0  0  0  0  0
   -6.2282   19.1886   66.9092 C   0  0  0  0  0  0  0  0  0  0  0  0
   -6.6905   20.2583   66.0918 C   0  0  0  0  0  0  0  0  0  0  0  0
   -4.2962   18.0597   67.8350 C   0  0  0  0  0  0  0  0  0  0  0  0
   -4.8140   19.0396   67.0581 C   0  0  0  0  0  0  0  0  0  0  0  0
   -5.9064   20.8464   65.2812 N   0  0  0  0  0  0  0  0  0  0  0  0
  -12.3528   14.5926   75.5996 O   0  0  0  0  0  0  0  0  0  0  0  0
  -12.4570   16.7014   75.7580 O   0  0  0  0  0  0  0  0  0  0  0  0
  1  2  2  0
  1  6  1  0
  1 11  1  0
  2  3  1  0
  3  4  1  0
  3  7  1  0
  4  9  2  0
  4  5  1  0
  5  6  1  0
  5  8  1  0
  6 10  2  0
  8 13  1  0
 11 12  3  0
 16 19  1  0
 22 23  1  0
 23 26  1  0
 19 27  2  0
 19 28  1  0
  7 18  2  0
 18 17  1  0
 17 16  2  0
 16 15  1  0
 15 14  2  0
 14  7  1  0
 13 20  2  0
 20 21  1  0
 21 24  2  0
 24 25  1  0
 25 22  2  0
 22 13  1  0
M  END

$$$$
No_188-gen_results_new/Mpro_initial_molecule_p3/2024-06-19-20-31-25/
     RDKit          3D

 28 30  0  0  0  0  0  0  0  0999 V2000
  -10.3383   15.1532   67.5971 C   0  0  0  0  0  0  0  0  0  0  0  0
  -10.7220   15.1619   68.8301 N   0  0  0  0  0  0  0  0  0  0  0  0
  -10.4044   16.2024   69.6852 N   0  0  0  0  0  0  0  0  0  0  0  0
   -9.7271   17.3221   69.2607 C   0  0  0  0  0  0  0  0  0  0  0  0
   -9.3095   17.3212   67.9557 N   0  0  0  0  0  0  0  0  0  0  0  0
   -9.5450   16.2958   67.0814 C   0  0  0  0  0  0  0  0  0  0  0  0
  -10.8644   16.0907   71.0374 C   0  0  0  0  0  0  0  0  0  0  0  0
   -8.5330   18.4792   67.4604 C   0  0  0  0  0  0  0  0  0  0  0  0
   -9.5433   18.2987   69.9938 O   0  0  0  0  0  0  0  0  0  0  0  0
   -9.1481   16.2876   65.9124 O   0  0  0  0  0  0  0  0  0  0  0  0
  -10.7304   14.0247   66.8209 C   0  0  0  0  0  0  0  0  0  0  0  0
  -11.1003   13.0895   66.2465 N   0  0  0  0  0  0  0  0  0  0  0  0
   -7.0275   18.2876   67.7219 C   0  0  0  0  0  0  0  0  0  0  0  0
  -10.0126   16.3511   72.1395 C   0  0  0  0  0  0  0  0  0  0  0  0
  -10.4883   16.2212   73.4591 C   0  0  0  0  0  0  0  0  0  0  0  0
  -11.8103   15.8022   73.6966 C   0  0  0  0  0  0  0  0  0  0  0  0
  -12.6594   15.5153   72.6113 C   0  0  0  0  0  0  0  0  0  0  0  0
  -12.1896   15.6561   71.2886 C   0  0  0  0  0  0  0  0  0  0  0  0
  -12.2484   15.6088   75.0145 O   0  0  0  0  0  0  0  0  0  0  0  0
   -6.4522   19.3083   67.8828 C   0  0  0  0  0  0  0  0  0  0  0  0
   -6.2559   20.3852   67.0148 C   0  0  0  0  0  0  0  0  0  0  0  0
   -7.6348   20.5655   66.3051 C   0  0  0  0  0  0  0  0  0  0  0  0
   -8.7557   19.5958   66.5583 C   0  0  0  0  0  0  0  0  0  0  0  0
   -5.4251   21.2899   66.7540 O   0  0  0  0  0  0  0  0  0  0  0  0
  -11.8812   16.5253   75.9080 C   0  0  0  0  0  0  0  0  0  0  0  0
  -13.9777   14.9573   72.7887 O   0  0  0  0  0  0  0  0  0  0  0  0
   -4.3991   21.0912   66.0094 C   0  0  0  0  0  0  0  0  0  0  0  0
   -4.0272   21.9953   65.3536 C   0  0  0  0  0  0  0  0  0  0  0  0
  1  2  2  0
  1  6  1  0
  1 11  1  0
  2  3  1  0
  3  4  1  0
  3  7  1  0
  4  9  2  0
  4  5  1  0
  5  6  1  0
  5  8  1  0
  6 10  2  0
 11 12  3  0
 16 19  1  0
 21 24  1  0
 19 25  1  0
 17 26  1  0
 24 27  1  0
 27 28  1  0
  8 13  2  0
 13 20  1  0
 20 21  2  0
 21 22  1  0
 22 23  2  0
 23  8  1  0
  7 18  2  0
 18 17  1  0
 17 16  2  0
 16 15  1  0
 15 14  2  0
 14  7  1  0
M  END

$$$$
No_189-gen_results_new/Mpro_initial_molecule_p3/2024-06-19-20-31-25/
     RDKit          3D

 28 30  0  0  0  0  0  0  0  0999 V2000
  -10.3383   15.1532   67.5971 C   0  0  0  0  0  0  0  0  0  0  0  0
  -10.7220   15.1619   68.8301 N   0  0  0  0  0  0  0  0  0  0  0  0
  -10.4044   16.2024   69.6852 N   0  0  0  0  0  0  0  0  0  0  0  0
   -9.7271   17.3221   69.2607 C   0  0  0  0  0  0  0  0  0  0  0  0
   -9.3095   17.3212   67.9557 N   0  0  0  0  0  0  0  0  0  0  0  0
   -9.5450   16.2958   67.0814 C   0  0  0  0  0  0  0  0  0  0  0  0
  -10.8644   16.0907   71.0374 C   0  0  0  0  0  0  0  0  0  0  0  0
   -8.5330   18.4792   67.4604 C   0  0  0  0  0  0  0  0  0  0  0  0
   -9.5433   18.2987   69.9938 O   0  0  0  0  0  0  0  0  0  0  0  0
   -9.1481   16.2876   65.9124 O   0  0  0  0  0  0  0  0  0  0  0  0
  -10.7304   14.0247   66.8209 C   0  0  0  0  0  0  0  0  0  0  0  0
  -11.1003   13.0895   66.2465 N   0  0  0  0  0  0  0  0  0  0  0  0
   -7.0275   18.2876   67.7219 C   0  0  0  0  0  0  0  0  0  0  0  0
  -10.0126   16.3511   72.1395 C   0  0  0  0  0  0  0  0  0  0  0  0
  -10.4883   16.2212   73.4591 C   0  0  0  0  0  0  0  0  0  0  0  0
  -11.8103   15.8022   73.6966 C   0  0  0  0  0  0  0  0  0  0  0  0
  -12.6594   15.5153   72.6113 C   0  0  0  0  0  0  0  0  0  0  0  0
  -12.1896   15.6561   71.2886 C   0  0  0  0  0  0  0  0  0  0  0  0
  -12.3486   15.5799   75.3255 Cl  0  0  0  0  0  0  0  0  0  0  0  0
   -6.4523   19.3079   67.8835 C   0  0  0  0  0  0  0  0  0  0  0  0
   -6.2032   19.5449   69.0280 C   0  0  0  0  0  0  0  0  0  0  0  0
   -5.6840   18.3857   69.7844 C   0  0  0  0  0  0  0  0  0  0  0  0
   -6.2430   17.0342   69.3917 C   0  0  0  0  0  0  0  0  0  0  0  0
   -7.0139   17.0490   68.3797 C   0  0  0  0  0  0  0  0  0  0  0  0
   -6.4747   20.4723   66.8815 C   0  0  0  0  0  0  0  0  0  0  0  0
   -7.3579   20.5388   66.0318 O   0  0  0  0  0  0  0  0  0  0  0  0
   -5.6847   21.4067   67.0006 O   0  0  0  0  0  0  0  0  0  0  0  0
   -4.9846   18.4175   71.0814 N   0  0  0  0  0  0  0  0  0  0  0  0
  1  2  2  0
  1  6  1  0
  1 11  1  0
  2  3  1  0
  3  4  1  0
  3  7  1  0
  4  9  2  0
  4  5  1  0
  5  6  1  0
  5  8  1  0
  6 10  2  0
  8 13  1  0
 11 12  3  0
 16 19  1  0
 20 25  1  0
 25 26  2  0
 25 27  1  0
 22 28  1  0
 13 20  2  0
 20 21  1  0
 21 22  2  0
 22 23  1  0
 23 24  2  0
 24 13  1  0
  7 18  2  0
 18 17  1  0
 17 16  2  0
 16 15  1  0
 15 14  2  0
 14  7  1  0
M  END

$$$$
No_190-gen_results_new/Mpro_initial_molecule_p3/2024-06-19-20-31-25/
     RDKit          3D

 28 30  0  0  0  0  0  0  0  0999 V2000
  -10.3383   15.1532   67.5971 C   0  0  0  0  0  0  0  0  0  0  0  0
  -10.7220   15.1619   68.8301 N   0  0  0  0  0  0  0  0  0  0  0  0
  -10.4044   16.2024   69.6852 N   0  0  0  0  0  0  0  0  0  0  0  0
   -9.7271   17.3221   69.2607 C   0  0  0  0  0  0  0  0  0  0  0  0
   -9.3095   17.3212   67.9557 N   0  0  0  0  0  0  0  0  0  0  0  0
   -9.5450   16.2958   67.0814 C   0  0  0  0  0  0  0  0  0  0  0  0
  -10.8644   16.0907   71.0374 C   0  0  0  0  0  0  0  0  0  0  0  0
   -8.5330   18.4792   67.4604 C   0  0  0  0  0  0  0  0  0  0  0  0
   -9.5433   18.2987   69.9938 O   0  0  0  0  0  0  0  0  0  0  0  0
   -9.1481   16.2876   65.9124 O   0  0  0  0  0  0  0  0  0  0  0  0
  -10.7304   14.0247   66.8209 C   0  0  0  0  0  0  0  0  0  0  0  0
  -11.1003   13.0895   66.2465 N   0  0  0  0  0  0  0  0  0  0  0  0
   -7.0275   18.2876   67.7219 C   0  0  0  0  0  0  0  0  0  0  0  0
  -10.0126   16.3511   72.1395 C   0  0  0  0  0  0  0  0  0  0  0  0
  -10.4883   16.2212   73.4591 C   0  0  0  0  0  0  0  0  0  0  0  0
  -11.8103   15.8022   73.6966 C   0  0  0  0  0  0  0  0  0  0  0  0
  -12.6594   15.5153   72.6113 C   0  0  0  0  0  0  0  0  0  0  0  0
  -12.1896   15.6561   71.2886 C   0  0  0  0  0  0  0  0  0  0  0  0
  -12.2768   15.6000   75.1088 C   0  0  0  0  0  0  0  0  0  0  0  0
   -6.3059   19.3590   66.9154 C   0  0  0  0  0  0  0  0  0  0  0  0
   -7.1023   20.6714   66.2252 Cl  0  0  0  0  0  0  0  0  0  0  0  0
  -11.9588   16.3225   75.9337 O   0  0  0  0  0  0  0  0  0  0  0  0
  -13.1723   14.8303   75.3283 O   0  0  0  0  0  0  0  0  0  0  0  0
   -5.0638   18.9767   66.2955 C   0  0  0  0  0  0  0  0  0  0  0  0
   -4.2528   17.9524   66.7492 C   0  0  0  0  0  0  0  0  0  0  0  0
   -4.9473   16.9997   67.6713 C   0  0  0  0  0  0  0  0  0  0  0  0
   -6.3846   17.1420   68.0163 C   0  0  0  0  0  0  0  0  0  0  0  0
   -4.2959   15.8667   68.1078 O   0  0  0  0  0  0  0  0  0  0  0  0
  1  2  2  0
  1  6  1  0
  1 11  1  0
  2  3  1  0
  3  4  1  0
  3  7  1  0
  4  9  2  0
  4  5  1  0
  5  6  1  0
  5  8  1  0
  6 10  2  0
  8 13  1  0
 11 12  3  0
 16 19  1  0
 20 21  1  0
 19 22  2  0
 19 23  1  0
 26 28  1  0
  7 18  2  0
 18 17  1  0
 17 16  2  0
 16 15  1  0
 15 14  2  0
 14  7  1  0
 13 20  2  0
 20 24  1  0
 24 25  2  0
 25 26  1  0
 26 27  2  0
 27 13  1  0
M  END

$$$$
No_191-gen_results_new/Mpro_initial_molecule_p3/2024-06-19-20-31-25/
     RDKit          3D

 28 30  0  0  0  0  0  0  0  0999 V2000
  -10.3383   15.1532   67.5971 C   0  0  0  0  0  0  0  0  0  0  0  0
  -10.7220   15.1619   68.8301 N   0  0  0  0  0  0  0  0  0  0  0  0
  -10.4044   16.2024   69.6852 N   0  0  0  0  0  0  0  0  0  0  0  0
   -9.7271   17.3221   69.2607 C   0  0  0  0  0  0  0  0  0  0  0  0
   -9.3095   17.3212   67.9557 N   0  0  0  0  0  0  0  0  0  0  0  0
   -9.5450   16.2958   67.0814 C   0  0  0  0  0  0  0  0  0  0  0  0
  -10.8644   16.0907   71.0374 C   0  0  0  0  0  0  0  0  0  0  0  0
   -8.5330   18.4792   67.4604 C   0  0  0  0  0  0  0  0  0  0  0  0
   -9.5433   18.2987   69.9938 O   0  0  0  0  0  0  0  0  0  0  0  0
   -9.1481   16.2876   65.9124 O   0  0  0  0  0  0  0  0  0  0  0  0
  -10.7304   14.0247   66.8209 C   0  0  0  0  0  0  0  0  0  0  0  0
  -11.1003   13.0895   66.2465 N   0  0  0  0  0  0  0  0  0  0  0  0
   -7.0275   18.2876   67.7219 C   0  0  0  0  0  0  0  0  0  0  0  0
  -10.0126   16.3511   72.1395 C   0  0  0  0  0  0  0  0  0  0  0  0
  -10.4883   16.2212   73.4591 C   0  0  0  0  0  0  0  0  0  0  0  0
  -11.8103   15.8022   73.6966 C   0  0  0  0  0  0  0  0  0  0  0  0
  -12.6594   15.5153   72.6113 C   0  0  0  0  0  0  0  0  0  0  0  0
  -12.1896   15.6561   71.2886 C   0  0  0  0  0  0  0  0  0  0  0  0
  -12.2484   15.6088   75.0145 O   0  0  0  0  0  0  0  0  0  0  0  0
   -6.5341   17.3731   68.3686 C   0  0  0  0  0  0  0  0  0  0  0  0
   -5.1307   17.1884   68.5569 C   0  0  0  0  0  0  0  0  0  0  0  0
   -6.3133   19.4047   67.2944 C   0  0  0  0  0  0  0  0  0  0  0  0
   -4.9040   19.2890   67.4763 C   0  0  0  0  0  0  0  0  0  0  0  0
   -4.3512   18.1960   68.1016 C   0  0  0  0  0  0  0  0  0  0  0  0
  -12.3359   16.7923   75.7212 C   0  0  0  0  0  0  0  0  0  0  0  0
   -3.9337   20.6174   66.9746 Cl  0  0  0  0  0  0  0  0  0  0  0  0
  -14.0723   14.8936   72.8131 C   0  0  0  0  0  0  0  0  0  0  0  0
   -2.9971   18.1654   68.3767 O   0  0  0  0  0  0  0  0  0  0  0  0
  1  2  2  0
  1  6  1  0
  1 11  1  0
  2  3  1  0
  3  4  1  0
  3  7  1  0
  4  9  2  0
  4  5  1  0
  5  6  1  0
  5  8  1  0
  6 10  2  0
  8 13  1  0
 11 12  3  0
 16 19  1  0
 19 25  1  0
 23 26  1  0
 17 27  1  0
 24 28  1  0
 13 20  2  0
 20 21  1  0
 21 24  2  0
 24 23  1  0
 23 22  2  0
 22 13  1  0
  7 18  2  0
 18 17  1  0
 17 16  2  0
 16 15  1  0
 15 14  2  0
 14  7  1  0
M  END

$$$$
No_192-gen_results_new/Mpro_initial_molecule_p3/2024-06-19-20-31-25/
     RDKit          3D

 28 30  0  0  0  0  0  0  0  0999 V2000
  -10.3383   15.1532   67.5971 C   0  0  0  0  0  0  0  0  0  0  0  0
  -10.7220   15.1619   68.8301 N   0  0  0  0  0  0  0  0  0  0  0  0
  -10.4044   16.2024   69.6852 N   0  0  0  0  0  0  0  0  0  0  0  0
   -9.7271   17.3221   69.2607 C   0  0  0  0  0  0  0  0  0  0  0  0
   -9.3095   17.3212   67.9557 N   0  0  0  0  0  0  0  0  0  0  0  0
   -9.5450   16.2958   67.0814 C   0  0  0  0  0  0  0  0  0  0  0  0
  -10.8644   16.0907   71.0374 C   0  0  0  0  0  0  0  0  0  0  0  0
   -8.5330   18.4792   67.4604 C   0  0  0  0  0  0  0  0  0  0  0  0
   -9.5433   18.2987   69.9938 O   0  0  0  0  0  0  0  0  0  0  0  0
   -9.1481   16.2876   65.9124 O   0  0  0  0  0  0  0  0  0  0  0  0
  -10.7304   14.0247   66.8209 C   0  0  0  0  0  0  0  0  0  0  0  0
  -11.1003   13.0895   66.2465 N   0  0  0  0  0  0  0  0  0  0  0  0
   -7.0275   18.2876   67.7219 C   0  0  0  0  0  0  0  0  0  0  0  0
  -10.0126   16.3511   72.1395 C   0  0  0  0  0  0  0  0  0  0  0  0
  -10.4883   16.2212   73.4591 C   0  0  0  0  0  0  0  0  0  0  0  0
  -11.8103   15.8022   73.6966 C   0  0  0  0  0  0  0  0  0  0  0  0
  -12.6594   15.5153   72.6113 C   0  0  0  0  0  0  0  0  0  0  0  0
  -12.1896   15.6561   71.2886 C   0  0  0  0  0  0  0  0  0  0  0  0
  -12.2768   15.6000   75.1088 C   0  0  0  0  0  0  0  0  0  0  0  0
   -6.5341   17.3729   68.3685 C   0  0  0  0  0  0  0  0  0  0  0  0
   -5.1249   17.1827   68.5818 C   0  0  0  0  0  0  0  0  0  0  0  0
   -4.2977   17.9486   67.7745 C   0  0  0  0  0  0  0  0  0  0  0  0
   -4.8006   18.9009   66.9638 C   0  0  0  0  0  0  0  0  0  0  0  0
   -6.2037   19.0663   66.8226 C   0  0  0  0  0  0  0  0  0  0  0  0
  -12.3528   14.5928   75.5997 O   0  0  0  0  0  0  0  0  0  0  0  0
  -12.8123   16.6656   75.6554 O   0  0  0  0  0  0  0  0  0  0  0  0
  -14.3024   14.8792   72.8347 Cl  0  0  0  0  0  0  0  0  0  0  0  0
   -6.8585   20.0000   65.9714 N   0  0  0  0  0  0  0  0  0  0  0  0
  1  2  2  0
  1  6  1  0
  1 11  1  0
  2  3  1  0
  3  4  1  0
  3  7  1  0
  4  9  2  0
  4  5  1  0
  5  6  1  0
  5  8  1  0
  6 10  2  0
  8 13  1  0
 11 12  3  0
 16 19  1  0
 19 25  2  0
 19 26  1  0
 17 27  1  0
 24 28  1  0
 13 20  2  0
 20 21  1  0
 21 22  2  0
 22 23  1  0
 23 24  2  0
 24 13  1  0
  7 18  2  0
 18 17  1  0
 17 16  2  0
 16 15  1  0
 15 14  2  0
 14  7  1  0
M  END

$$$$
No_193-gen_results_new/Mpro_initial_molecule_p3/2024-06-19-20-31-25/
     RDKit          3D

 28 30  0  0  0  0  0  0  0  0999 V2000
  -10.3383   15.1532   67.5971 C   0  0  0  0  0  0  0  0  0  0  0  0
  -10.7220   15.1619   68.8301 N   0  0  0  0  0  0  0  0  0  0  0  0
  -10.4044   16.2024   69.6852 N   0  0  0  0  0  0  0  0  0  0  0  0
   -9.7271   17.3221   69.2607 C   0  0  0  0  0  0  0  0  0  0  0  0
   -9.3095   17.3212   67.9557 N   0  0  0  0  0  0  0  0  0  0  0  0
   -9.5450   16.2958   67.0814 C   0  0  0  0  0  0  0  0  0  0  0  0
  -10.8644   16.0907   71.0374 C   0  0  0  0  0  0  0  0  0  0  0  0
   -8.5330   18.4792   67.4604 C   0  0  0  0  0  0  0  0  0  0  0  0
   -9.5433   18.2987   69.9938 O   0  0  0  0  0  0  0  0  0  0  0  0
   -9.1481   16.2876   65.9124 O   0  0  0  0  0  0  0  0  0  0  0  0
  -10.7304   14.0247   66.8209 C   0  0  0  0  0  0  0  0  0  0  0  0
  -11.1003   13.0895   66.2465 N   0  0  0  0  0  0  0  0  0  0  0  0
   -7.0275   18.2876   67.7219 C   0  0  0  0  0  0  0  0  0  0  0  0
  -10.0126   16.3511   72.1395 C   0  0  0  0  0  0  0  0  0  0  0  0
  -10.4883   16.2212   73.4591 C   0  0  0  0  0  0  0  0  0  0  0  0
  -11.8103   15.8022   73.6966 C   0  0  0  0  0  0  0  0  0  0  0  0
  -12.6594   15.5153   72.6113 C   0  0  0  0  0  0  0  0  0  0  0  0
  -12.1896   15.6561   71.2886 C   0  0  0  0  0  0  0  0  0  0  0  0
  -12.3486   15.5799   75.3255 Cl  0  0  0  0  0  0  0  0  0  0  0  0
   -6.5344   17.3734   68.3696 C   0  0  0  0  0  0  0  0  0  0  0  0
   -5.1249   17.1828   68.5820 C   0  0  0  0  0  0  0  0  0  0  0  0
   -4.2977   17.9477   67.7740 C   0  0  0  0  0  0  0  0  0  0  0  0
   -2.9932   17.8717   67.7418 C   0  0  0  0  0  0  0  0  0  0  0  0
   -6.1800   19.0663   66.9477 C   0  0  0  0  0  0  0  0  0  0  0  0
   -4.8786   18.9283   66.9770 C   0  0  0  0  0  0  0  0  0  0  0  0
   -2.3597   18.3109   68.7144 O   0  0  0  0  0  0  0  0  0  0  0  0
   -2.3028   17.1586   66.9022 O   0  0  0  0  0  0  0  0  0  0  0  0
  -14.1198   14.9544   72.8039 C   0  0  0  0  0  0  0  0  0  0  0  0
  1  2  2  0
  1  6  1  0
  1 11  1  0
  2  3  1  0
  3  4  1  0
  3  7  1  0
  4  9  2  0
  4  5  1  0
  5  6  1  0
  5  8  1  0
  6 10  2  0
  8 13  1  0
 11 12  3  0
 16 19  1  0
 22 23  1  0
 23 26  2  0
 23 27  1  0
 17 28  1  0
 13 20  2  0
 20 21  1  0
 21 22  2  0
 22 25  1  0
 25 24  2  0
 24 13  1  0
  7 18  2  0
 18 17  1  0
 17 16  2  0
 16 15  1  0
 15 14  2  0
 14  7  1  0
M  END

$$$$
No_194-gen_results_new/Mpro_initial_molecule_p3/2024-06-19-20-31-25/
     RDKit          3D

 28 30  0  0  0  0  0  0  0  0999 V2000
  -10.3383   15.1532   67.5971 C   0  0  0  0  0  0  0  0  0  0  0  0
  -10.7220   15.1619   68.8301 N   0  0  0  0  0  0  0  0  0  0  0  0
  -10.4044   16.2024   69.6852 N   0  0  0  0  0  0  0  0  0  0  0  0
   -9.7271   17.3221   69.2607 C   0  0  0  0  0  0  0  0  0  0  0  0
   -9.3095   17.3212   67.9557 N   0  0  0  0  0  0  0  0  0  0  0  0
   -9.5450   16.2958   67.0814 C   0  0  0  0  0  0  0  0  0  0  0  0
  -10.8644   16.0907   71.0374 C   0  0  0  0  0  0  0  0  0  0  0  0
   -8.5330   18.4792   67.4604 C   0  0  0  0  0  0  0  0  0  0  0  0
   -9.5433   18.2987   69.9938 O   0  0  0  0  0  0  0  0  0  0  0  0
   -9.1481   16.2876   65.9124 O   0  0  0  0  0  0  0  0  0  0  0  0
  -10.7304   14.0247   66.8209 C   0  0  0  0  0  0  0  0  0  0  0  0
  -11.1003   13.0895   66.2465 N   0  0  0  0  0  0  0  0  0  0  0  0
   -7.0275   18.2876   67.7219 C   0  0  0  0  0  0  0  0  0  0  0  0
  -10.0126   16.3511   72.1395 C   0  0  0  0  0  0  0  0  0  0  0  0
  -10.4883   16.2212   73.4591 C   0  0  0  0  0  0  0  0  0  0  0  0
  -11.8103   15.8022   73.6966 C   0  0  0  0  0  0  0  0  0  0  0  0
  -12.6594   15.5153   72.6113 C   0  0  0  0  0  0  0  0  0  0  0  0
  -12.1896   15.6561   71.2886 C   0  0  0  0  0  0  0  0  0  0  0  0
  -12.2768   15.6000   75.1088 C   0  0  0  0  0  0  0  0  0  0  0  0
   -6.3059   19.3590   66.9154 C   0  0  0  0  0  0  0  0  0  0  0  0
   -4.9893   19.4432   66.9685 C   0  0  0  0  0  0  0  0  0  0  0  0
   -4.2710   18.3392   67.6545 C   0  0  0  0  0  0  0  0  0  0  0  0
   -5.0431   17.2552   68.3050 C   0  0  0  0  0  0  0  0  0  0  0  0
   -6.4246   17.2337   68.1850 C   0  0  0  0  0  0  0  0  0  0  0  0
  -12.9865   16.5590   75.4319 F   0  0  0  0  0  0  0  0  0  0  0  0
  -11.2721   15.5021   75.8802 F   0  0  0  0  0  0  0  0  0  0  0  0
  -13.0965   14.4889   74.9600 F   0  0  0  0  0  0  0  0  0  0  0  0
   -4.2028   20.4285   66.3804 C   0  0  0  0  0  0  0  0  0  0  0  0
  1  2  2  0
  1  6  1  0
  1 11  1  0
  2  3  1  0
  3  4  1  0
  3  7  1  0
  4  9  2  0
  4  5  1  0
  5  6  1  0
  5  8  1  0
  6 10  2  0
  8 13  1  0
 11 12  3  0
 16 19  1  0
 19 25  1  0
 19 26  1  0
 19 27  1  0
 21 28  1  0
 13 20  2  0
 20 21  1  0
 21 22  2  0
 22 23  1  0
 23 24  2  0
 24 13  1  0
  7 18  2  0
 18 17  1  0
 17 16  2  0
 16 15  1  0
 15 14  2  0
 14  7  1  0
M  END

$$$$
No_195-gen_results_new/Mpro_initial_molecule_p3/2024-06-19-20-31-25/
     RDKit          3D

 28 30  0  0  0  0  0  0  0  0999 V2000
  -10.3383   15.1532   67.5971 C   0  0  0  0  0  0  0  0  0  0  0  0
  -10.7220   15.1619   68.8301 N   0  0  0  0  0  0  0  0  0  0  0  0
  -10.4044   16.2024   69.6852 N   0  0  0  0  0  0  0  0  0  0  0  0
   -9.7271   17.3221   69.2607 C   0  0  0  0  0  0  0  0  0  0  0  0
   -9.3095   17.3212   67.9557 N   0  0  0  0  0  0  0  0  0  0  0  0
   -9.5450   16.2958   67.0814 C   0  0  0  0  0  0  0  0  0  0  0  0
  -10.8644   16.0907   71.0374 C   0  0  0  0  0  0  0  0  0  0  0  0
   -8.5330   18.4792   67.4604 C   0  0  0  0  0  0  0  0  0  0  0  0
   -9.5433   18.2987   69.9938 O   0  0  0  0  0  0  0  0  0  0  0  0
   -9.1481   16.2876   65.9124 O   0  0  0  0  0  0  0  0  0  0  0  0
  -10.7304   14.0247   66.8209 C   0  0  0  0  0  0  0  0  0  0  0  0
  -11.1003   13.0895   66.2465 N   0  0  0  0  0  0  0  0  0  0  0  0
   -7.0275   18.2876   67.7219 C   0  0  0  0  0  0  0  0  0  0  0  0
  -10.0126   16.3511   72.1395 C   0  0  0  0  0  0  0  0  0  0  0  0
  -10.4883   16.2212   73.4591 C   0  0  0  0  0  0  0  0  0  0  0  0
  -11.8103   15.8022   73.6966 C   0  0  0  0  0  0  0  0  0  0  0  0
  -12.6594   15.5153   72.6113 C   0  0  0  0  0  0  0  0  0  0  0  0
  -12.1896   15.6561   71.2886 C   0  0  0  0  0  0  0  0  0  0  0  0
  -12.2768   15.6000   75.1088 C   0  0  0  0  0  0  0  0  0  0  0  0
   -6.5556   17.2014   67.9036 O   0  0  0  0  0  0  0  0  0  0  0  0
   -6.2800   19.2224   67.1756 N   0  0  0  0  0  0  0  0  0  0  0  0
  -12.5812   16.5960   75.6949 O   0  0  0  0  0  0  0  0  0  0  0  0
  -11.8945   14.5569   75.6572 O   0  0  0  0  0  0  0  0  0  0  0  0
   -4.8739   19.1485   67.1720 C   0  0  0  0  0  0  0  0  0  0  0  0
   -4.2917   20.2661   66.6729 C   0  0  0  0  0  0  0  0  0  0  0  0
   -4.8527   21.2708   66.0366 C   0  0  0  0  0  0  0  0  0  0  0  0
   -6.3073   21.2120   65.8914 C   0  0  0  0  0  0  0  0  0  0  0  0
   -6.9971   20.2517   66.5613 C   0  0  0  0  0  0  0  0  0  0  0  0
  1  2  2  0
  1  6  1  0
  1 11  1  0
  2  3  1  0
  3  4  1  0
  3  7  1  0
  4  9  2  0
  4  5  1  0
  5  6  1  0
  5  8  1  0
  6 10  2  0
  8 13  1  0
 11 12  3  0
 16 19  1  0
 13 20  2  0
 13 21  1  0
 19 22  2  0
 19 23  1  0
 21 24  1  0
 24 25  1  0
 25 26  1  0
 21 28  1  0
 27 28  1  0
 26 27  1  0
  7 18  2  0
 18 17  1  0
 17 16  2  0
 16 15  1  0
 15 14  2  0
 14  7  1  0
M  END

$$$$
No_196-gen_results_new/Mpro_initial_molecule_p3/2024-06-19-20-31-25/
     RDKit          3D

 26 28  0  0  0  0  0  0  0  0999 V2000
  -10.3383   15.1532   67.5971 C   0  0  0  0  0  0  0  0  0  0  0  0
  -10.7220   15.1619   68.8301 N   0  0  0  0  0  0  0  0  0  0  0  0
  -10.4044   16.2024   69.6852 N   0  0  0  0  0  0  0  0  0  0  0  0
   -9.7271   17.3221   69.2607 C   0  0  0  0  0  0  0  0  0  0  0  0
   -9.3095   17.3212   67.9557 N   0  0  0  0  0  0  0  0  0  0  0  0
   -9.5450   16.2958   67.0814 C   0  0  0  0  0  0  0  0  0  0  0  0
  -10.8644   16.0907   71.0374 C   0  0  0  0  0  0  0  0  0  0  0  0
   -8.5330   18.4792   67.4604 C   0  0  0  0  0  0  0  0  0  0  0  0
   -9.5433   18.2987   69.9938 O   0  0  0  0  0  0  0  0  0  0  0  0
   -9.1481   16.2876   65.9124 O   0  0  0  0  0  0  0  0  0  0  0  0
  -10.7304   14.0247   66.8209 C   0  0  0  0  0  0  0  0  0  0  0  0
  -11.1003   13.0895   66.2465 N   0  0  0  0  0  0  0  0  0  0  0  0
   -7.0275   18.2876   67.7219 C   0  0  0  0  0  0  0  0  0  0  0  0
  -10.0126   16.3511   72.1395 C   0  0  0  0  0  0  0  0  0  0  0  0
  -10.4883   16.2212   73.4591 C   0  0  0  0  0  0  0  0  0  0  0  0
  -11.8103   15.8022   73.6966 C   0  0  0  0  0  0  0  0  0  0  0  0
  -12.6594   15.5153   72.6113 C   0  0  0  0  0  0  0  0  0  0  0  0
  -12.1896   15.6561   71.2886 C   0  0  0  0  0  0  0  0  0  0  0  0
  -12.3486   15.5799   75.3255 Cl  0  0  0  0  0  0  0  0  0  0  0  0
   -6.5344   17.3734   68.3696 C   0  0  0  0  0  0  0  0  0  0  0  0
   -5.1249   17.1828   68.5820 C   0  0  0  0  0  0  0  0  0  0  0  0
   -4.5638   16.2600   69.3585 C   0  0  0  0  0  0  0  0  0  0  0  0
   -5.3625   15.4101   70.1883 C   0  0  0  0  0  0  0  0  0  0  0  0
   -6.8138   15.6428   70.2147 C   0  0  0  0  0  0  0  0  0  0  0  0
   -7.5352   14.8993   71.0494 F   0  0  0  0  0  0  0  0  0  0  0  0
   -7.3709   16.5146   69.3491 C   0  0  0  0  0  0  0  0  0  0  0  0
  1  2  2  0
  1  6  1  0
  1 11  1  0
  2  3  1  0
  3  4  1  0
  3  7  1  0
  4  9  2  0
  4  5  1  0
  5  6  1  0
  5  8  1  0
  6 10  2  0
  8 13  1  0
 11 12  3  0
 16 19  1  0
 24 25  1  0
 13 20  1  0
  7 18  2  0
 18 17  1  0
 17 16  2  0
 16 15  1  0
 15 14  2  0
 14  7  1  0
 20 21  2  0
 21 22  1  0
 22 23  2  0
 23 24  1  0
 24 26  2  0
 26 20  1  0
M  END

$$$$
No_197-gen_results_new/Mpro_initial_molecule_p3/2024-06-19-20-31-25/
     RDKit          3D

 28 30  0  0  0  0  0  0  0  0999 V2000
  -10.3383   15.1532   67.5971 C   0  0  0  0  0  0  0  0  0  0  0  0
  -10.7220   15.1619   68.8301 N   0  0  0  0  0  0  0  0  0  0  0  0
  -10.4044   16.2024   69.6852 N   0  0  0  0  0  0  0  0  0  0  0  0
   -9.7271   17.3221   69.2607 C   0  0  0  0  0  0  0  0  0  0  0  0
   -9.3095   17.3212   67.9557 N   0  0  0  0  0  0  0  0  0  0  0  0
   -9.5450   16.2958   67.0814 C   0  0  0  0  0  0  0  0  0  0  0  0
  -10.8644   16.0907   71.0374 C   0  0  0  0  0  0  0  0  0  0  0  0
   -8.5330   18.4792   67.4604 C   0  0  0  0  0  0  0  0  0  0  0  0
   -9.5433   18.2987   69.9938 O   0  0  0  0  0  0  0  0  0  0  0  0
   -9.1481   16.2876   65.9124 O   0  0  0  0  0  0  0  0  0  0  0  0
  -10.7304   14.0247   66.8209 C   0  0  0  0  0  0  0  0  0  0  0  0
  -11.1003   13.0895   66.2465 N   0  0  0  0  0  0  0  0  0  0  0  0
   -7.0275   18.2876   67.7219 C   0  0  0  0  0  0  0  0  0  0  0  0
  -10.0126   16.3511   72.1395 C   0  0  0  0  0  0  0  0  0  0  0  0
  -10.4883   16.2212   73.4591 C   0  0  0  0  0  0  0  0  0  0  0  0
  -11.8103   15.8022   73.6966 C   0  0  0  0  0  0  0  0  0  0  0  0
  -12.6594   15.5153   72.6113 C   0  0  0  0  0  0  0  0  0  0  0  0
  -12.1896   15.6561   71.2886 C   0  0  0  0  0  0  0  0  0  0  0  0
  -12.2768   15.6000   75.1088 C   0  0  0  0  0  0  0  0  0  0  0  0
   -6.5341   17.3729   68.3685 C   0  0  0  0  0  0  0  0  0  0  0  0
   -5.1308   17.1882   68.5568 C   0  0  0  0  0  0  0  0  0  0  0  0
   -6.2282   19.1886   66.9092 C   0  0  0  0  0  0  0  0  0  0  0  0
   -4.8273   19.0035   67.0391 C   0  0  0  0  0  0  0  0  0  0  0  0
   -4.3060   18.0195   67.7979 C   0  0  0  0  0  0  0  0  0  0  0  0
  -12.3528   14.5927   75.5997 O   0  0  0  0  0  0  0  0  0  0  0  0
  -12.4213   16.7487   75.8003 N   0  0  0  0  0  0  0  0  0  0  0  0
   -6.9008   20.4564   65.9108 Cl  0  0  0  0  0  0  0  0  0  0  0  0
   -4.6570   16.1314   69.3423 O   0  0  0  0  0  0  0  0  0  0  0  0
  1  2  2  0
  1  6  1  0
  1 11  1  0
  2  3  1  0
  3  4  1  0
  3  7  1  0
  4  9  2  0
  4  5  1  0
  5  6  1  0
  5  8  1  0
  6 10  2  0
  8 13  1  0
 11 12  3  0
 16 19  1  0
 19 25  2  0
 19 26  1  0
 22 27  1  0
 21 28  1  0
 13 20  2  0
 20 21  1  0
 21 24  2  0
 24 23  1  0
 23 22  2  0
 22 13  1  0
  7 18  2  0
 18 17  1  0
 17 16  2  0
 16 15  1  0
 15 14  2  0
 14  7  1  0
M  END

$$$$
No_198-gen_results_new/Mpro_initial_molecule_p3/2024-06-19-20-31-25/
     RDKit          3D

 28 30  0  0  0  0  0  0  0  0999 V2000
  -10.3383   15.1532   67.5971 C   0  0  0  0  0  0  0  0  0  0  0  0
  -10.7220   15.1619   68.8301 N   0  0  0  0  0  0  0  0  0  0  0  0
  -10.4044   16.2024   69.6852 N   0  0  0  0  0  0  0  0  0  0  0  0
   -9.7271   17.3221   69.2607 C   0  0  0  0  0  0  0  0  0  0  0  0
   -9.3095   17.3212   67.9557 N   0  0  0  0  0  0  0  0  0  0  0  0
   -9.5450   16.2958   67.0814 C   0  0  0  0  0  0  0  0  0  0  0  0
  -10.8644   16.0907   71.0374 C   0  0  0  0  0  0  0  0  0  0  0  0
   -8.5330   18.4792   67.4604 C   0  0  0  0  0  0  0  0  0  0  0  0
   -9.5433   18.2987   69.9938 O   0  0  0  0  0  0  0  0  0  0  0  0
   -9.1481   16.2876   65.9124 O   0  0  0  0  0  0  0  0  0  0  0  0
  -10.7304   14.0247   66.8209 C   0  0  0  0  0  0  0  0  0  0  0  0
  -11.1003   13.0895   66.2465 N   0  0  0  0  0  0  0  0  0  0  0  0
   -7.0275   18.2876   67.7219 C   0  0  0  0  0  0  0  0  0  0  0  0
  -10.0126   16.3511   72.1395 C   0  0  0  0  0  0  0  0  0  0  0  0
  -10.4883   16.2212   73.4591 C   0  0  0  0  0  0  0  0  0  0  0  0
  -11.8103   15.8022   73.6966 C   0  0  0  0  0  0  0  0  0  0  0  0
  -12.6594   15.5153   72.6113 C   0  0  0  0  0  0  0  0  0  0  0  0
  -12.1896   15.6561   71.2886 C   0  0  0  0  0  0  0  0  0  0  0  0
  -12.2768   15.6000   75.1088 C   0  0  0  0  0  0  0  0  0  0  0  0
   -6.5341   17.3729   68.3685 C   0  0  0  0  0  0  0  0  0  0  0  0
   -5.0715   17.5390   68.5416 C   0  0  0  0  0  0  0  0  0  0  0  0
   -4.2817   18.2416   67.7594 C   0  0  0  0  0  0  0  0  0  0  0  0
   -4.9171   19.1696   66.9510 C   0  0  0  0  0  0  0  0  0  0  0  0
   -6.3135   19.1610   66.8064 C   0  0  0  0  0  0  0  0  0  0  0  0
  -12.3526   14.5927   75.5997 O   0  0  0  0  0  0  0  0  0  0  0  0
  -12.4212   16.7486   75.8004 N   0  0  0  0  0  0  0  0  0  0  0  0
  -14.3055   14.8837   72.8626 Cl  0  0  0  0  0  0  0  0  0  0  0  0
   -4.0922   20.0895   66.1334 C   0  0  0  0  0  0  0  0  0  0  0  0
  1  2  2  0
  1  6  1  0
  1 11  1  0
  2  3  1  0
  3  4  1  0
  3  7  1  0
  4  9  2  0
  4  5  1  0
  5  6  1  0
  5  8  1  0
  6 10  2  0
  8 13  1  0
 11 12  3  0
 16 19  1  0
 19 25  2  0
 19 26  1  0
 17 27  1  0
 23 28  1  0
 13 20  2  0
 20 21  1  0
 21 22  2  0
 22 23  1  0
 23 24  2  0
 24 13  1  0
  7 18  2  0
 18 17  1  0
 17 16  2  0
 16 15  1  0
 15 14  2  0
 14  7  1  0
M  END

$$$$
No_199-gen_results_new/Mpro_initial_molecule_p3/2024-06-19-20-31-25/
     RDKit          3D

 28 30  0  0  0  0  0  0  0  0999 V2000
  -10.3383   15.1532   67.5971 C   0  0  0  0  0  0  0  0  0  0  0  0
  -10.7220   15.1619   68.8301 N   0  0  0  0  0  0  0  0  0  0  0  0
  -10.4044   16.2024   69.6852 N   0  0  0  0  0  0  0  0  0  0  0  0
   -9.7271   17.3221   69.2607 C   0  0  0  0  0  0  0  0  0  0  0  0
   -9.3095   17.3212   67.9557 N   0  0  0  0  0  0  0  0  0  0  0  0
   -9.5450   16.2958   67.0814 C   0  0  0  0  0  0  0  0  0  0  0  0
  -10.8644   16.0907   71.0374 C   0  0  0  0  0  0  0  0  0  0  0  0
   -8.5330   18.4792   67.4604 C   0  0  0  0  0  0  0  0  0  0  0  0
   -9.5433   18.2987   69.9938 O   0  0  0  0  0  0  0  0  0  0  0  0
   -9.1481   16.2876   65.9124 O   0  0  0  0  0  0  0  0  0  0  0  0
  -10.7304   14.0247   66.8209 C   0  0  0  0  0  0  0  0  0  0  0  0
  -11.1003   13.0895   66.2465 N   0  0  0  0  0  0  0  0  0  0  0  0
   -7.0275   18.2876   67.7219 C   0  0  0  0  0  0  0  0  0  0  0  0
  -10.0126   16.3511   72.1395 C   0  0  0  0  0  0  0  0  0  0  0  0
  -10.4883   16.2212   73.4591 C   0  0  0  0  0  0  0  0  0  0  0  0
  -11.8103   15.8022   73.6966 C   0  0  0  0  0  0  0  0  0  0  0  0
  -12.6594   15.5153   72.6113 C   0  0  0  0  0  0  0  0  0  0  0  0
  -12.1896   15.6561   71.2886 C   0  0  0  0  0  0  0  0  0  0  0  0
  -12.2768   15.6000   75.1088 C   0  0  0  0  0  0  0  0  0  0  0  0
   -6.3059   19.3590   66.9154 C   0  0  0  0  0  0  0  0  0  0  0  0
   -4.9893   19.4432   66.9685 C   0  0  0  0  0  0  0  0  0  0  0  0
   -4.2885   20.4305   66.2887 C   0  0  0  0  0  0  0  0  0  0  0  0
   -4.9684   21.5145   65.8586 C   0  0  0  0  0  0  0  0  0  0  0  0
   -4.0518   22.7536   65.1437 Cl  0  0  0  0  0  0  0  0  0  0  0  0
  -12.3535   14.5921   75.5995 O   0  0  0  0  0  0  0  0  0  0  0  0
  -12.2294   16.6679   75.8387 O   0  0  0  0  0  0  0  0  0  0  0  0
   -6.2607   21.4358   65.8284 N   0  0  0  0  0  0  0  0  0  0  0  0
   -6.9953   20.4634   66.3871 C   0  0  0  0  0  0  0  0  0  0  0  0
  1  2  2  0
  1  6  1  0
  1 11  1  0
  2  3  1  0
  3  4  1  0
  3  7  1  0
  4  9  2  0
  4  5  1  0
  5  6  1  0
  5  8  1  0
  6 10  2  0
  8 13  1  0
 11 12  3  0
 16 19  1  0
 13 20  1  0
 23 24  1  0
 19 25  2  0
 19 26  1  0
 20 21  2  0
 21 22  1  0
 22 23  2  0
 23 27  1  0
 27 28  2  0
 28 20  1  0
  7 18  2  0
 18 17  1  0
 17 16  2  0
 16 15  1  0
 15 14  2  0
 14  7  1  0
M  END

$$$$
No_200-gen_results_new/Mpro_initial_molecule_p3/2024-06-19-20-31-25/
     RDKit          3D

 28 30  0  0  0  0  0  0  0  0999 V2000
  -10.3383   15.1532   67.5971 C   0  0  0  0  0  0  0  0  0  0  0  0
  -10.7220   15.1619   68.8301 N   0  0  0  0  0  0  0  0  0  0  0  0
  -10.4044   16.2024   69.6852 N   0  0  0  0  0  0  0  0  0  0  0  0
   -9.7271   17.3221   69.2607 C   0  0  0  0  0  0  0  0  0  0  0  0
   -9.3095   17.3212   67.9557 N   0  0  0  0  0  0  0  0  0  0  0  0
   -9.5450   16.2958   67.0814 C   0  0  0  0  0  0  0  0  0  0  0  0
  -10.8644   16.0907   71.0374 C   0  0  0  0  0  0  0  0  0  0  0  0
   -8.5330   18.4792   67.4604 C   0  0  0  0  0  0  0  0  0  0  0  0
   -9.5433   18.2987   69.9938 O   0  0  0  0  0  0  0  0  0  0  0  0
   -9.1481   16.2876   65.9124 O   0  0  0  0  0  0  0  0  0  0  0  0
  -10.7304   14.0247   66.8209 C   0  0  0  0  0  0  0  0  0  0  0  0
  -11.1003   13.0895   66.2465 N   0  0  0  0  0  0  0  0  0  0  0  0
   -7.0275   18.2876   67.7219 C   0  0  0  0  0  0  0  0  0  0  0  0
  -10.0126   16.3511   72.1395 C   0  0  0  0  0  0  0  0  0  0  0  0
  -10.4883   16.2212   73.4591 C   0  0  0  0  0  0  0  0  0  0  0  0
  -11.8103   15.8022   73.6966 C   0  0  0  0  0  0  0  0  0  0  0  0
  -12.6594   15.5153   72.6113 C   0  0  0  0  0  0  0  0  0  0  0  0
  -12.1896   15.6561   71.2886 C   0  0  0  0  0  0  0  0  0  0  0  0
  -12.3486   15.5799   75.3255 Cl  0  0  0  0  0  0  0  0  0  0  0  0
   -6.4523   19.3079   67.8835 C   0  0  0  0  0  0  0  0  0  0  0  0
   -4.9276   19.3344   68.2144 C   0  0  0  0  0  0  0  0  0  0  0  0
   -4.2063   20.5661   68.2864 C   0  0  0  0  0  0  0  0  0  0  0  0
   -2.7311   20.3403   68.4294 C   0  0  0  0  0  0  0  0  0  0  0  0
   -2.1777   20.1744   69.2794 C   0  0  0  0  0  0  0  0  0  0  0  0
   -2.8630   18.6898   69.8668 C   0  0  0  0  0  0  0  0  0  0  0  0
   -4.3386   18.5088   69.4124 C   0  0  0  0  0  0  0  0  0  0  0  0
   -0.8999   20.0710   69.7579 O   0  0  0  0  0  0  0  0  0  0  0  0
   -0.2651   19.2085   70.6124 C   0  0  0  0  0  0  0  0  0  0  0  0
  1  2  2  0
  1  6  1  0
  1 11  1  0
  2  3  1  0
  3  4  1  0
  3  7  1  0
  4  9  2  0
  4  5  1  0
  5  6  1  0
  5  8  1  0
  6 10  2  0
  8 13  1  0
 11 12  3  0
 16 19  1  0
 13 20  2  3
 20 21  1  0
 24 27  1  0
 27 28  1  0
  7 18  2  0
 18 17  1  0
 17 16  2  0
 16 15  1  0
 15 14  2  0
 14  7  1  0
 21 22  2  0
 22 23  1  0
 23 24  2  0
 24 25  1  0
 25 26  2  0
 26 21  1  0
M  END

$$$$
No_201-gen_results_new/Mpro_initial_molecule_p3/2024-06-19-20-31-25/
     RDKit          3D

 25 27  0  0  0  0  0  0  0  0999 V2000
  -10.3383   15.1532   67.5971 C   0  0  0  0  0  0  0  0  0  0  0  0
  -10.7220   15.1619   68.8301 N   0  0  0  0  0  0  0  0  0  0  0  0
  -10.4044   16.2024   69.6852 N   0  0  0  0  0  0  0  0  0  0  0  0
   -9.7271   17.3221   69.2607 C   0  0  0  0  0  0  0  0  0  0  0  0
   -9.3095   17.3212   67.9557 N   0  0  0  0  0  0  0  0  0  0  0  0
   -9.5450   16.2958   67.0814 C   0  0  0  0  0  0  0  0  0  0  0  0
  -10.8644   16.0907   71.0374 C   0  0  0  0  0  0  0  0  0  0  0  0
   -8.5330   18.4792   67.4604 C   0  0  0  0  0  0  0  0  0  0  0  0
   -9.5433   18.2987   69.9938 O   0  0  0  0  0  0  0  0  0  0  0  0
   -9.1481   16.2876   65.9124 O   0  0  0  0  0  0  0  0  0  0  0  0
  -10.7304   14.0247   66.8209 C   0  0  0  0  0  0  0  0  0  0  0  0
  -11.1003   13.0895   66.2465 N   0  0  0  0  0  0  0  0  0  0  0  0
   -7.0275   18.2876   67.7219 C   0  0  0  0  0  0  0  0  0  0  0  0
  -10.0126   16.3511   72.1395 C   0  0  0  0  0  0  0  0  0  0  0  0
  -10.4883   16.2212   73.4591 C   0  0  0  0  0  0  0  0  0  0  0  0
  -11.8103   15.8022   73.6966 C   0  0  0  0  0  0  0  0  0  0  0  0
  -12.6594   15.5153   72.6113 C   0  0  0  0  0  0  0  0  0  0  0  0
  -12.1896   15.6561   71.2886 C   0  0  0  0  0  0  0  0  0  0  0  0
  -12.3486   15.5799   75.3255 Cl  0  0  0  0  0  0  0  0  0  0  0  0
   -6.4523   19.3079   67.8835 C   0  0  0  0  0  0  0  0  0  0  0  0
   -6.4740   20.3250   66.9828 N   0  0  0  0  0  0  0  0  0  0  0  0
   -5.3044   21.0275   66.7283 C   0  0  0  0  0  0  0  0  0  0  0  0
   -4.9817   19.0780   68.2724 C   0  0  0  0  0  0  0  0  0  0  0  0
   -3.8976   19.7094   67.7795 C   0  0  0  0  0  0  0  0  0  0  0  0
   -4.1093   20.8338   67.0764 C   0  0  0  0  0  0  0  0  0  0  0  0
  1  2  2  0
  1  6  1  0
  1 11  1  0
  2  3  1  0
  3  4  1  0
  3  7  1  0
  4  9  2  0
  4  5  1  0
  5  6  1  0
  5  8  1  0
  6 10  2  0
  8 13  1  0
 11 12  3  0
 16 19  1  0
 13 20  1  0
 20 21  2  0
 21 22  1  0
 22 25  2  0
 25 24  1  0
 24 23  2  0
 23 20  1  0
  7 18  2  0
 18 17  1  0
 17 16  2  0
 16 15  1  0
 15 14  2  0
 14  7  1  0
M  END

$$$$
No_202-gen_results_new/Mpro_initial_molecule_p3/2024-06-19-20-31-25/
     RDKit          3D

 28 30  0  0  0  0  0  0  0  0999 V2000
  -10.3383   15.1532   67.5971 C   0  0  0  0  0  0  0  0  0  0  0  0
  -10.7220   15.1619   68.8301 N   0  0  0  0  0  0  0  0  0  0  0  0
  -10.4044   16.2024   69.6852 N   0  0  0  0  0  0  0  0  0  0  0  0
   -9.7271   17.3221   69.2607 C   0  0  0  0  0  0  0  0  0  0  0  0
   -9.3095   17.3212   67.9557 N   0  0  0  0  0  0  0  0  0  0  0  0
   -9.5450   16.2958   67.0814 C   0  0  0  0  0  0  0  0  0  0  0  0
  -10.8644   16.0907   71.0374 C   0  0  0  0  0  0  0  0  0  0  0  0
   -8.5330   18.4792   67.4604 C   0  0  0  0  0  0  0  0  0  0  0  0
   -9.5433   18.2987   69.9938 O   0  0  0  0  0  0  0  0  0  0  0  0
   -9.1481   16.2876   65.9124 O   0  0  0  0  0  0  0  0  0  0  0  0
  -10.7304   14.0247   66.8209 C   0  0  0  0  0  0  0  0  0  0  0  0
  -11.1003   13.0895   66.2465 N   0  0  0  0  0  0  0  0  0  0  0  0
   -7.0275   18.2876   67.7219 C   0  0  0  0  0  0  0  0  0  0  0  0
  -10.0126   16.3511   72.1395 C   0  0  0  0  0  0  0  0  0  0  0  0
  -10.4883   16.2212   73.4591 C   0  0  0  0  0  0  0  0  0  0  0  0
  -11.8103   15.8022   73.6966 C   0  0  0  0  0  0  0  0  0  0  0  0
  -12.6594   15.5153   72.6113 C   0  0  0  0  0  0  0  0  0  0  0  0
  -12.1896   15.6561   71.2886 C   0  0  0  0  0  0  0  0  0  0  0  0
  -12.3486   15.5799   75.3255 Cl  0  0  0  0  0  0  0  0  0  0  0  0
   -6.4523   19.3079   67.8835 C   0  0  0  0  0  0  0  0  0  0  0  0
   -6.2032   19.5449   69.0280 C   0  0  0  0  0  0  0  0  0  0  0  0
   -5.6841   18.3857   69.7844 C   0  0  0  0  0  0  0  0  0  0  0  0
   -5.3862   17.4329   69.5031 C   0  0  0  0  0  0  0  0  0  0  0  0
   -6.7079   17.0176   68.4167 C   0  0  0  0  0  0  0  0  0  0  0  0
   -5.4511   19.4729   66.8131 C   0  0  0  0  0  0  0  0  0  0  0  0
   -4.8603   20.7605   66.3237 C   0  0  0  0  0  0  0  0  0  0  0  0
   -3.8628   20.8267   65.8170 N   0  0  0  0  0  0  0  0  0  0  0  0
   -5.7858   21.7048   66.1453 O   0  0  0  0  0  0  0  0  0  0  0  0
  1  2  2  0
  1  6  1  0
  1 11  1  0
  2  3  1  0
  3  4  1  0
  3  7  1  0
  4  9  2  0
  4  5  1  0
  5  6  1  0
  5  8  1  0
  6 10  2  0
  8 13  1  0
 11 12  3  0
 16 19  1  0
 20 25  1  0
 25 26  1  0
 26 27  1  0
 26 28  2  0
 13 20  2  0
 20 21  1  0
 21 22  2  0
 22 23  1  0
 23 24  2  0
 24 13  1  0
  7 18  2  0
 18 17  1  0
 17 16  2  0
 16 15  1  0
 15 14  2  0
 14  7  1  0
M  END

$$$$
No_203-gen_results_new/Mpro_initial_molecule_p3/2024-06-19-20-31-25/
     RDKit          3D

 28 30  0  0  0  0  0  0  0  0999 V2000
  -10.3383   15.1532   67.5971 C   0  0  0  0  0  0  0  0  0  0  0  0
  -10.7220   15.1619   68.8301 N   0  0  0  0  0  0  0  0  0  0  0  0
  -10.4044   16.2024   69.6852 N   0  0  0  0  0  0  0  0  0  0  0  0
   -9.7271   17.3221   69.2607 C   0  0  0  0  0  0  0  0  0  0  0  0
   -9.3095   17.3212   67.9557 N   0  0  0  0  0  0  0  0  0  0  0  0
   -9.5450   16.2958   67.0814 C   0  0  0  0  0  0  0  0  0  0  0  0
  -10.8644   16.0907   71.0374 C   0  0  0  0  0  0  0  0  0  0  0  0
   -8.5330   18.4792   67.4604 C   0  0  0  0  0  0  0  0  0  0  0  0
   -9.5433   18.2987   69.9938 O   0  0  0  0  0  0  0  0  0  0  0  0
   -9.1481   16.2876   65.9124 O   0  0  0  0  0  0  0  0  0  0  0  0
  -10.7304   14.0247   66.8209 C   0  0  0  0  0  0  0  0  0  0  0  0
  -11.1003   13.0895   66.2465 N   0  0  0  0  0  0  0  0  0  0  0  0
   -7.0275   18.2876   67.7219 C   0  0  0  0  0  0  0  0  0  0  0  0
  -10.0126   16.3511   72.1395 C   0  0  0  0  0  0  0  0  0  0  0  0
  -10.4883   16.2212   73.4591 C   0  0  0  0  0  0  0  0  0  0  0  0
  -11.8103   15.8022   73.6966 C   0  0  0  0  0  0  0  0  0  0  0  0
  -12.6594   15.5153   72.6113 C   0  0  0  0  0  0  0  0  0  0  0  0
  -12.1896   15.6561   71.2886 C   0  0  0  0  0  0  0  0  0  0  0  0
  -12.2484   15.6088   75.0145 O   0  0  0  0  0  0  0  0  0  0  0  0
   -6.4522   19.3083   67.8828 C   0  0  0  0  0  0  0  0  0  0  0  0
   -6.2010   19.5450   69.0274 C   0  0  0  0  0  0  0  0  0  0  0  0
   -5.0263   20.3355   69.5307 C   0  0  0  0  0  0  0  0  0  0  0  0
   -4.1483   20.7184   68.5720 C   0  0  0  0  0  0  0  0  0  0  0  0
   -4.2148   20.2847   67.2279 C   0  0  0  0  0  0  0  0  0  0  0  0
   -5.3305   19.5326   66.8694 C   0  0  0  0  0  0  0  0  0  0  0  0
   -3.2864   20.7494   66.1769 C   0  0  0  0  0  0  0  0  0  0  0  0
   -3.1587   21.7757   65.9019 O   0  0  0  0  0  0  0  0  0  0  0  0
   -3.0101   19.8043   65.2651 N   0  0  0  0  0  0  0  0  0  0  0  0
  1  2  2  0
  1  6  1  0
  1 11  1  0
  2  3  1  0
  3  4  1  0
  3  7  1  0
  4  9  2  0
  4  5  1  0
  5  6  1  0
  5  8  1  0
  6 10  2  0
  8 13  1  0
 11 12  3  0
 16 19  1  0
 13 20  1  0
 24 26  1  0
 26 27  2  0
 26 28  1  0
 20 21  2  0
 21 22  1  0
 22 23  2  0
 23 24  1  0
 24 25  2  0
 25 20  1  0
  7 18  2  0
 18 17  1  0
 17 16  2  0
 16 15  1  0
 15 14  2  0
 14  7  1  0
M  END

$$$$
No_204-gen_results_new/Mpro_initial_molecule_p3/2024-06-19-20-31-25/
     RDKit          3D

 28 30  0  0  0  0  0  0  0  0999 V2000
  -10.3383   15.1532   67.5971 C   0  0  0  0  0  0  0  0  0  0  0  0
  -10.7220   15.1619   68.8301 N   0  0  0  0  0  0  0  0  0  0  0  0
  -10.4044   16.2024   69.6852 N   0  0  0  0  0  0  0  0  0  0  0  0
   -9.7271   17.3221   69.2607 C   0  0  0  0  0  0  0  0  0  0  0  0
   -9.3095   17.3212   67.9557 N   0  0  0  0  0  0  0  0  0  0  0  0
   -9.5450   16.2958   67.0814 C   0  0  0  0  0  0  0  0  0  0  0  0
  -10.8644   16.0907   71.0374 C   0  0  0  0  0  0  0  0  0  0  0  0
   -8.5330   18.4792   67.4604 C   0  0  0  0  0  0  0  0  0  0  0  0
   -9.5433   18.2987   69.9938 O   0  0  0  0  0  0  0  0  0  0  0  0
   -9.1481   16.2876   65.9124 O   0  0  0  0  0  0  0  0  0  0  0  0
  -10.7304   14.0247   66.8209 C   0  0  0  0  0  0  0  0  0  0  0  0
  -11.1003   13.0895   66.2465 N   0  0  0  0  0  0  0  0  0  0  0  0
   -7.0275   18.2876   67.7219 C   0  0  0  0  0  0  0  0  0  0  0  0
  -10.0126   16.3511   72.1395 C   0  0  0  0  0  0  0  0  0  0  0  0
  -10.4883   16.2212   73.4591 C   0  0  0  0  0  0  0  0  0  0  0  0
  -11.8103   15.8022   73.6966 C   0  0  0  0  0  0  0  0  0  0  0  0
  -12.6594   15.5153   72.6113 C   0  0  0  0  0  0  0  0  0  0  0  0
  -12.1896   15.6561   71.2886 C   0  0  0  0  0  0  0  0  0  0  0  0
  -12.3486   15.5799   75.3255 Cl  0  0  0  0  0  0  0  0  0  0  0  0
   -6.3331   19.2809   66.8951 N   0  0  0  0  0  0  0  0  0  0  0  0
   -4.9893   19.0972   66.8661 C   0  0  0  0  0  0  0  0  0  0  0  0
   -4.2346   20.0292   66.0213 C   0  0  0  0  0  0  0  0  0  0  0  0
   -2.9608   19.7492   65.7081 C   0  0  0  0  0  0  0  0  0  0  0  0
   -2.3324   20.6552   64.8341 C   0  0  0  0  0  0  0  0  0  0  0  0
   -2.8701   21.8381   64.4845 C   0  0  0  0  0  0  0  0  0  0  0  0
   -4.1237   22.1874   64.9204 C   0  0  0  0  0  0  0  0  0  0  0  0
   -4.8812   21.2830   65.7207 C   0  0  0  0  0  0  0  0  0  0  0  0
   -4.4186   18.4058   67.6143 O   0  0  0  0  0  0  0  0  0  0  0  0
  1  2  2  0
  1  6  1  0
  1 11  1  0
  2  3  1  0
  3  4  1  0
  3  7  1  0
  4  9  2  0
  4  5  1  0
  5  6  1  0
  5  8  1  0
  6 10  2  0
  8 13  1  0
 11 12  3  0
 16 19  1  0
 13 20  1  0
 20 21  1  0
 21 22  1  0
 21 28  2  0
 22 23  2  0
 23 24  1  0
 24 25  2  0
 25 26  1  0
 26 27  2  0
 27 22  1  0
  7 18  2  0
 18 17  1  0
 17 16  2  0
 16 15  1  0
 15 14  2  0
 14  7  1  0
M  END

$$$$
No_205-gen_results_new/Mpro_initial_molecule_p3/2024-06-19-20-31-25/
     RDKit          3D

 28 30  0  0  0  0  0  0  0  0999 V2000
  -10.3383   15.1532   67.5971 C   0  0  0  0  0  0  0  0  0  0  0  0
  -10.7220   15.1619   68.8301 N   0  0  0  0  0  0  0  0  0  0  0  0
  -10.4044   16.2024   69.6852 N   0  0  0  0  0  0  0  0  0  0  0  0
   -9.7271   17.3221   69.2607 C   0  0  0  0  0  0  0  0  0  0  0  0
   -9.3095   17.3212   67.9557 N   0  0  0  0  0  0  0  0  0  0  0  0
   -9.5450   16.2958   67.0814 C   0  0  0  0  0  0  0  0  0  0  0  0
  -10.8644   16.0907   71.0374 C   0  0  0  0  0  0  0  0  0  0  0  0
   -8.5330   18.4792   67.4604 C   0  0  0  0  0  0  0  0  0  0  0  0
   -9.5433   18.2987   69.9938 O   0  0  0  0  0  0  0  0  0  0  0  0
   -9.1481   16.2876   65.9124 O   0  0  0  0  0  0  0  0  0  0  0  0
  -10.7304   14.0247   66.8209 C   0  0  0  0  0  0  0  0  0  0  0  0
  -11.1003   13.0895   66.2465 N   0  0  0  0  0  0  0  0  0  0  0  0
   -7.0275   18.2876   67.7219 C   0  0  0  0  0  0  0  0  0  0  0  0
  -10.0126   16.3511   72.1395 C   0  0  0  0  0  0  0  0  0  0  0  0
  -10.4883   16.2212   73.4591 C   0  0  0  0  0  0  0  0  0  0  0  0
  -11.8103   15.8022   73.6966 C   0  0  0  0  0  0  0  0  0  0  0  0
  -12.6594   15.5153   72.6113 C   0  0  0  0  0  0  0  0  0  0  0  0
  -12.1896   15.6561   71.2886 C   0  0  0  0  0  0  0  0  0  0  0  0
  -12.2768   15.6000   75.1088 C   0  0  0  0  0  0  0  0  0  0  0  0
   -6.4522   19.3092   67.8826 C   0  0  0  0  0  0  0  0  0  0  0  0
  -12.3537   14.5923   75.5994 O   0  0  0  0  0  0  0  0  0  0  0  0
  -12.4205   16.7483   75.8013 N   0  0  0  0  0  0  0  0  0  0  0  0
   -6.3700   20.4051   67.0253 C   0  0  0  0  0  0  0  0  0  0  0  0
   -5.2154   21.2045   66.8529 C   0  0  0  0  0  0  0  0  0  0  0  0
   -4.2849   21.1382   67.9162 C   0  0  0  0  0  0  0  0  0  0  0  0
   -4.2361   19.9878   68.8372 C   0  0  0  0  0  0  0  0  0  0  0  0
   -5.2976   19.1124   68.8562 C   0  0  0  0  0  0  0  0  0  0  0  0
   -3.1297   19.8913   69.8756 C   0  0  0  0  0  0  0  0  0  0  0  0
  1  2  2  0
  1  6  1  0
  1 11  1  0
  2  3  1  0
  3  4  1  0
  3  7  1  0
  4  9  2  0
  4  5  1  0
  5  6  1  0
  5  8  1  0
  6 10  2  0
  8 13  1  0
 11 12  3  0
 16 19  1  0
 13 20  1  0
 19 21  2  0
 19 22  1  0
 26 28  1  0
 20 23  2  0
 23 24  1  0
 24 25  2  0
 25 26  1  0
 26 27  2  0
 27 20  1  0
  7 18  2  0
 18 17  1  0
 17 16  2  0
 16 15  1  0
 15 14  2  0
 14  7  1  0
M  END

$$$$
No_206-gen_results_new/Mpro_initial_molecule_p3/2024-06-19-20-31-25/
     RDKit          3D

 26 28  0  0  0  0  0  0  0  0999 V2000
  -10.3383   15.1532   67.5971 C   0  0  0  0  0  0  0  0  0  0  0  0
  -10.7220   15.1619   68.8301 N   0  0  0  0  0  0  0  0  0  0  0  0
  -10.4044   16.2024   69.6852 N   0  0  0  0  0  0  0  0  0  0  0  0
   -9.7271   17.3221   69.2607 C   0  0  0  0  0  0  0  0  0  0  0  0
   -9.3095   17.3212   67.9557 N   0  0  0  0  0  0  0  0  0  0  0  0
   -9.5450   16.2958   67.0814 C   0  0  0  0  0  0  0  0  0  0  0  0
  -10.8644   16.0907   71.0374 C   0  0  0  0  0  0  0  0  0  0  0  0
   -8.5330   18.4792   67.4604 C   0  0  0  0  0  0  0  0  0  0  0  0
   -9.5433   18.2987   69.9938 O   0  0  0  0  0  0  0  0  0  0  0  0
   -9.1481   16.2876   65.9124 O   0  0  0  0  0  0  0  0  0  0  0  0
  -10.7304   14.0247   66.8209 C   0  0  0  0  0  0  0  0  0  0  0  0
  -11.1003   13.0895   66.2465 N   0  0  0  0  0  0  0  0  0  0  0  0
   -7.0275   18.2876   67.7219 C   0  0  0  0  0  0  0  0  0  0  0  0
  -10.0126   16.3511   72.1395 C   0  0  0  0  0  0  0  0  0  0  0  0
  -10.4883   16.2212   73.4591 C   0  0  0  0  0  0  0  0  0  0  0  0
  -11.8103   15.8022   73.6966 C   0  0  0  0  0  0  0  0  0  0  0  0
  -12.6594   15.5153   72.6113 C   0  0  0  0  0  0  0  0  0  0  0  0
  -12.1896   15.6561   71.2886 C   0  0  0  0  0  0  0  0  0  0  0  0
  -12.3486   15.5799   75.3255 Cl  0  0  0  0  0  0  0  0  0  0  0  0
   -6.4523   19.3079   67.8835 C   0  0  0  0  0  0  0  0  0  0  0  0
   -6.2542   20.3848   67.0158 C   0  0  0  0  0  0  0  0  0  0  0  0
   -5.0986   21.1564   66.8597 C   0  0  0  0  0  0  0  0  0  0  0  0
   -4.8806   21.9012   65.7096 C   0  0  0  0  0  0  0  0  0  0  0  0
   -5.2251   21.4068   64.7349 N   0  0  0  0  0  0  0  0  0  0  0  0
   -6.4014   20.6476   64.5782 C   0  0  0  0  0  0  0  0  0  0  0  0
   -6.7438   19.9118   65.6893 C   0  0  0  0  0  0  0  0  0  0  0  0
  1  2  2  0
  1  6  1  0
  1 11  1  0
  2  3  1  0
  3  4  1  0
  3  7  1  0
  4  9  2  0
  4  5  1  0
  5  6  1  0
  5  8  1  0
  6 10  2  0
  8 13  1  0
 11 12  3  0
 16 19  1  0
 13 20  1  0
 20 21  1  0
  7 18  2  0
 18 17  1  0
 17 16  2  0
 16 15  1  0
 15 14  2  0
 14  7  1  0
 21 22  2  0
 22 23  1  0
 23 24  2  0
 24 25  1  0
 25 26  2  0
 26 21  1  0
M  END

$$$$
No_207-gen_results_new/Mpro_initial_molecule_p3/2024-06-19-20-31-25/
     RDKit          3D

 26 28  0  0  0  0  0  0  0  0999 V2000
  -10.3383   15.1532   67.5971 C   0  0  0  0  0  0  0  0  0  0  0  0
  -10.7220   15.1619   68.8301 N   0  0  0  0  0  0  0  0  0  0  0  0
  -10.4044   16.2024   69.6852 N   0  0  0  0  0  0  0  0  0  0  0  0
   -9.7271   17.3221   69.2607 C   0  0  0  0  0  0  0  0  0  0  0  0
   -9.3095   17.3212   67.9557 N   0  0  0  0  0  0  0  0  0  0  0  0
   -9.5450   16.2958   67.0814 C   0  0  0  0  0  0  0  0  0  0  0  0
  -10.8644   16.0907   71.0374 C   0  0  0  0  0  0  0  0  0  0  0  0
   -8.5330   18.4792   67.4604 C   0  0  0  0  0  0  0  0  0  0  0  0
   -9.5433   18.2987   69.9938 O   0  0  0  0  0  0  0  0  0  0  0  0
   -9.1481   16.2876   65.9124 O   0  0  0  0  0  0  0  0  0  0  0  0
  -10.7304   14.0247   66.8209 C   0  0  0  0  0  0  0  0  0  0  0  0
  -11.1003   13.0895   66.2465 N   0  0  0  0  0  0  0  0  0  0  0  0
   -7.0275   18.2876   67.7219 C   0  0  0  0  0  0  0  0  0  0  0  0
  -10.0126   16.3511   72.1395 C   0  0  0  0  0  0  0  0  0  0  0  0
  -10.4883   16.2212   73.4591 C   0  0  0  0  0  0  0  0  0  0  0  0
  -11.8103   15.8022   73.6966 C   0  0  0  0  0  0  0  0  0  0  0  0
  -12.6594   15.5153   72.6113 C   0  0  0  0  0  0  0  0  0  0  0  0
  -12.1896   15.6561   71.2886 C   0  0  0  0  0  0  0  0  0  0  0  0
  -12.3486   15.5799   75.3255 Cl  0  0  0  0  0  0  0  0  0  0  0  0
   -6.5344   17.3734   68.3696 C   0  0  0  0  0  0  0  0  0  0  0  0
   -5.1249   17.1828   68.5820 C   0  0  0  0  0  0  0  0  0  0  0  0
   -4.5638   16.2600   69.3585 C   0  0  0  0  0  0  0  0  0  0  0  0
   -5.3625   15.4101   70.1883 C   0  0  0  0  0  0  0  0  0  0  0  0
   -6.8138   15.6428   70.2147 C   0  0  0  0  0  0  0  0  0  0  0  0
   -7.5930   14.8146   71.1530 C   0  0  0  0  0  0  0  0  0  0  0  0
   -7.3697   16.5132   69.3485 C   0  0  0  0  0  0  0  0  0  0  0  0
  1  2  2  0
  1  6  1  0
  1 11  1  0
  2  3  1  0
  3  4  1  0
  3  7  1  0
  4  9  2  0
  4  5  1  0
  5  6  1  0
  5  8  1  0
  6 10  2  0
  8 13  1  0
 11 12  3  0
 16 19  1  0
 24 25  1  0
 13 20  1  0
  7 18  2  0
 18 17  1  0
 17 16  2  0
 16 15  1  0
 15 14  2  0
 14  7  1  0
 20 21  2  0
 21 22  1  0
 22 23  2  0
 23 24  1  0
 24 26  2  0
 26 20  1  0
M  END

$$$$
No_208-gen_results_new/Mpro_initial_molecule_p3/2024-06-19-20-31-25/
     RDKit          3D

 28 30  0  0  0  0  0  0  0  0999 V2000
  -10.3383   15.1532   67.5971 C   0  0  0  0  0  0  0  0  0  0  0  0
  -10.7220   15.1619   68.8301 N   0  0  0  0  0  0  0  0  0  0  0  0
  -10.4044   16.2024   69.6852 N   0  0  0  0  0  0  0  0  0  0  0  0
   -9.7271   17.3221   69.2607 C   0  0  0  0  0  0  0  0  0  0  0  0
   -9.3095   17.3212   67.9557 N   0  0  0  0  0  0  0  0  0  0  0  0
   -9.5450   16.2958   67.0814 C   0  0  0  0  0  0  0  0  0  0  0  0
  -10.8644   16.0907   71.0374 C   0  0  0  0  0  0  0  0  0  0  0  0
   -8.5330   18.4792   67.4604 C   0  0  0  0  0  0  0  0  0  0  0  0
   -9.5433   18.2987   69.9938 O   0  0  0  0  0  0  0  0  0  0  0  0
   -9.1481   16.2876   65.9124 O   0  0  0  0  0  0  0  0  0  0  0  0
  -10.7304   14.0247   66.8209 C   0  0  0  0  0  0  0  0  0  0  0  0
  -11.1003   13.0895   66.2465 N   0  0  0  0  0  0  0  0  0  0  0  0
   -7.0275   18.2876   67.7219 C   0  0  0  0  0  0  0  0  0  0  0  0
  -10.0126   16.3511   72.1395 C   0  0  0  0  0  0  0  0  0  0  0  0
  -10.4883   16.2212   73.4591 C   0  0  0  0  0  0  0  0  0  0  0  0
  -11.8103   15.8022   73.6966 C   0  0  0  0  0  0  0  0  0  0  0  0
  -12.6594   15.5153   72.6113 C   0  0  0  0  0  0  0  0  0  0  0  0
  -12.1896   15.6561   71.2886 C   0  0  0  0  0  0  0  0  0  0  0  0
  -12.2768   15.6000   75.1088 C   0  0  0  0  0  0  0  0  0  0  0  0
   -6.5341   17.3729   68.3685 C   0  0  0  0  0  0  0  0  0  0  0  0
   -5.1249   17.1827   68.5818 C   0  0  0  0  0  0  0  0  0  0  0  0
   -4.2977   17.9486   67.7745 C   0  0  0  0  0  0  0  0  0  0  0  0
   -4.8006   18.9009   66.9638 C   0  0  0  0  0  0  0  0  0  0  0  0
   -6.2037   19.0663   66.8226 C   0  0  0  0  0  0  0  0  0  0  0  0
  -12.3528   14.5928   75.5997 O   0  0  0  0  0  0  0  0  0  0  0  0
  -12.2003   16.7298   75.8912 N   0  0  0  0  0  0  0  0  0  0  0  0
  -14.0763   14.9546   72.8443 C   0  0  0  0  0  0  0  0  0  0  0  0
   -6.7526   20.0019   65.9542 O   0  0  0  0  0  0  0  0  0  0  0  0
  1  2  2  0
  1  6  1  0
  1 11  1  0
  2  3  1  0
  3  4  1  0
  3  7  1  0
  4  9  2  0
  4  5  1  0
  5  6  1  0
  5  8  1  0
  6 10  2  0
  8 13  1  0
 11 12  3  0
 16 19  1  0
 19 25  2  0
 19 26  1  0
 17 27  1  0
 24 28  1  0
 13 20  2  0
 20 21  1  0
 21 22  2  0
 22 23  1  0
 23 24  2  0
 24 13  1  0
  7 18  2  0
 18 17  1  0
 17 16  2  0
 16 15  1  0
 15 14  2  0
 14  7  1  0
M  END

$$$$
No_209-gen_results_new/Mpro_initial_molecule_p3/2024-06-19-20-31-25/
     RDKit          3D

 28 30  0  0  0  0  0  0  0  0999 V2000
  -10.3383   15.1532   67.5971 C   0  0  0  0  0  0  0  0  0  0  0  0
  -10.7220   15.1619   68.8301 N   0  0  0  0  0  0  0  0  0  0  0  0
  -10.4044   16.2024   69.6852 N   0  0  0  0  0  0  0  0  0  0  0  0
   -9.7271   17.3221   69.2607 C   0  0  0  0  0  0  0  0  0  0  0  0
   -9.3095   17.3212   67.9557 N   0  0  0  0  0  0  0  0  0  0  0  0
   -9.5450   16.2958   67.0814 C   0  0  0  0  0  0  0  0  0  0  0  0
  -10.8644   16.0907   71.0374 C   0  0  0  0  0  0  0  0  0  0  0  0
   -8.5330   18.4792   67.4604 C   0  0  0  0  0  0  0  0  0  0  0  0
   -9.5433   18.2987   69.9938 O   0  0  0  0  0  0  0  0  0  0  0  0
   -9.1481   16.2876   65.9124 O   0  0  0  0  0  0  0  0  0  0  0  0
  -10.7304   14.0247   66.8209 C   0  0  0  0  0  0  0  0  0  0  0  0
  -11.1003   13.0895   66.2465 N   0  0  0  0  0  0  0  0  0  0  0  0
   -7.0275   18.2876   67.7219 C   0  0  0  0  0  0  0  0  0  0  0  0
  -10.0126   16.3511   72.1395 C   0  0  0  0  0  0  0  0  0  0  0  0
  -10.4883   16.2212   73.4591 C   0  0  0  0  0  0  0  0  0  0  0  0
  -11.8103   15.8022   73.6966 C   0  0  0  0  0  0  0  0  0  0  0  0
  -12.6594   15.5153   72.6113 C   0  0  0  0  0  0  0  0  0  0  0  0
  -12.1896   15.6561   71.2886 C   0  0  0  0  0  0  0  0  0  0  0  0
  -12.3486   15.5799   75.3255 Cl  0  0  0  0  0  0  0  0  0  0  0  0
   -6.3058   19.3592   66.9157 C   0  0  0  0  0  0  0  0  0  0  0  0
   -7.0068   20.0397   66.0823 C   0  0  0  0  0  0  0  0  0  0  0  0
   -8.3353   20.2283   65.8986 C   0  0  0  0  0  0  0  0  0  0  0  0
   -9.1514   19.3362   66.6912 C   0  0  0  0  0  0  0  0  0  0  0  0
   -6.0606   21.0678   65.4714 N   0  0  0  0  0  0  0  0  0  0  0  0
  -14.1216   14.9581   72.8038 C   0  0  0  0  0  0  0  0  0  0  0  0
   -5.3263   20.8222   64.4474 C   0  0  0  0  0  0  0  0  0  0  0  0
   -4.8322   21.7558   63.9252 O   0  0  0  0  0  0  0  0  0  0  0  0
   -5.3535   19.6599   63.8435 O   0  0  0  0  0  0  0  0  0  0  0  0
  1  2  2  0
  1  6  1  0
  1 11  1  0
  2  3  1  0
  3  4  1  0
  3  7  1  0
  4  9  2  0
  4  5  1  0
  5  6  1  0
  5  8  1  0
  6 10  2  0
 11 12  3  0
 16 19  1  0
 21 24  1  0
 17 25  1  0
 24 26  1  0
 26 27  2  0
 26 28  1  0
  8 13  2  0
 13 20  1  0
 20 21  2  0
 21 22  1  0
 22 23  2  0
 23  8  1  0
  7 18  2  0
 18 17  1  0
 17 16  2  0
 16 15  1  0
 15 14  2  0
 14  7  1  0
M  END

$$$$
No_210-gen_results_new/Mpro_initial_molecule_p3/2024-06-19-20-31-25/
     RDKit          3D

 28 30  0  0  0  0  0  0  0  0999 V2000
  -10.3383   15.1532   67.5971 C   0  0  0  0  0  0  0  0  0  0  0  0
  -10.7220   15.1619   68.8301 N   0  0  0  0  0  0  0  0  0  0  0  0
  -10.4044   16.2024   69.6852 N   0  0  0  0  0  0  0  0  0  0  0  0
   -9.7271   17.3221   69.2607 C   0  0  0  0  0  0  0  0  0  0  0  0
   -9.3095   17.3212   67.9557 N   0  0  0  0  0  0  0  0  0  0  0  0
   -9.5450   16.2958   67.0814 C   0  0  0  0  0  0  0  0  0  0  0  0
  -10.8644   16.0907   71.0374 C   0  0  0  0  0  0  0  0  0  0  0  0
   -8.5330   18.4792   67.4604 C   0  0  0  0  0  0  0  0  0  0  0  0
   -9.5433   18.2987   69.9938 O   0  0  0  0  0  0  0  0  0  0  0  0
   -9.1481   16.2876   65.9124 O   0  0  0  0  0  0  0  0  0  0  0  0
  -10.7304   14.0247   66.8209 C   0  0  0  0  0  0  0  0  0  0  0  0
  -11.1003   13.0895   66.2465 N   0  0  0  0  0  0  0  0  0  0  0  0
   -7.0275   18.2876   67.7219 C   0  0  0  0  0  0  0  0  0  0  0  0
  -10.0126   16.3511   72.1395 C   0  0  0  0  0  0  0  0  0  0  0  0
  -10.4883   16.2212   73.4591 C   0  0  0  0  0  0  0  0  0  0  0  0
  -11.8103   15.8022   73.6966 C   0  0  0  0  0  0  0  0  0  0  0  0
  -12.6594   15.5153   72.6113 C   0  0  0  0  0  0  0  0  0  0  0  0
  -12.1896   15.6561   71.2886 C   0  0  0  0  0  0  0  0  0  0  0  0
  -12.2484   15.6088   75.0145 O   0  0  0  0  0  0  0  0  0  0  0  0
   -6.3059   19.3591   66.9155 C   0  0  0  0  0  0  0  0  0  0  0  0
   -4.9923   19.4463   66.9703 C   0  0  0  0  0  0  0  0  0  0  0  0
   -4.2907   20.4330   66.2898 C   0  0  0  0  0  0  0  0  0  0  0  0
   -4.9709   21.5154   65.8584 C   0  0  0  0  0  0  0  0  0  0  0  0
   -6.3464   21.4598   65.7952 N   0  0  0  0  0  0  0  0  0  0  0  0
   -7.0208   20.4587   66.3566 C   0  0  0  0  0  0  0  0  0  0  0  0
   -4.2661   22.5368   65.2227 N   0  0  0  0  0  0  0  0  0  0  0  0
  -12.3386   16.7900   75.7237 C   0  0  0  0  0  0  0  0  0  0  0  0
   -6.5755   17.2834   68.2475 O   0  0  0  0  0  0  0  0  0  0  0  0
  1  2  2  0
  1  6  1  0
  1 11  1  0
  2  3  1  0
  3  4  1  0
  3  7  1  0
  4  9  2  0
  4  5  1  0
  5  6  1  0
  5  8  1  0
  6 10  2  0
  8 13  1  0
 11 12  3  0
 16 19  1  0
 13 20  1  0
 23 26  1  0
 19 27  1  0
 13 28  2  0
 20 21  2  0
 21 22  1  0
 22 23  2  0
 23 24  1  0
 24 25  2  0
 25 20  1  0
  7 18  2  0
 18 17  1  0
 17 16  2  0
 16 15  1  0
 15 14  2  0
 14  7  1  0
M  END

$$$$
No_211-gen_results_new/Mpro_initial_molecule_p3/2024-06-19-20-31-25/
     RDKit          3D

 28 30  0  0  0  0  0  0  0  0999 V2000
  -10.3383   15.1532   67.5971 C   0  0  0  0  0  0  0  0  0  0  0  0
  -10.7220   15.1619   68.8301 N   0  0  0  0  0  0  0  0  0  0  0  0
  -10.4044   16.2024   69.6852 N   0  0  0  0  0  0  0  0  0  0  0  0
   -9.7271   17.3221   69.2607 C   0  0  0  0  0  0  0  0  0  0  0  0
   -9.3095   17.3212   67.9557 N   0  0  0  0  0  0  0  0  0  0  0  0
   -9.5450   16.2958   67.0814 C   0  0  0  0  0  0  0  0  0  0  0  0
  -10.8644   16.0907   71.0374 C   0  0  0  0  0  0  0  0  0  0  0  0
   -8.5330   18.4792   67.4604 C   0  0  0  0  0  0  0  0  0  0  0  0
   -9.5433   18.2987   69.9938 O   0  0  0  0  0  0  0  0  0  0  0  0
   -9.1481   16.2876   65.9124 O   0  0  0  0  0  0  0  0  0  0  0  0
  -10.7304   14.0247   66.8209 C   0  0  0  0  0  0  0  0  0  0  0  0
  -11.1003   13.0895   66.2465 N   0  0  0  0  0  0  0  0  0  0  0  0
   -7.0275   18.2876   67.7219 C   0  0  0  0  0  0  0  0  0  0  0  0
  -10.0126   16.3511   72.1395 C   0  0  0  0  0  0  0  0  0  0  0  0
  -10.4883   16.2212   73.4591 C   0  0  0  0  0  0  0  0  0  0  0  0
  -11.8103   15.8022   73.6966 C   0  0  0  0  0  0  0  0  0  0  0  0
  -12.6594   15.5153   72.6113 C   0  0  0  0  0  0  0  0  0  0  0  0
  -12.1896   15.6561   71.2886 C   0  0  0  0  0  0  0  0  0  0  0  0
  -12.2768   15.6000   75.1088 C   0  0  0  0  0  0  0  0  0  0  0  0
   -6.3059   19.3590   66.9154 C   0  0  0  0  0  0  0  0  0  0  0  0
   -4.9893   19.4432   66.9685 C   0  0  0  0  0  0  0  0  0  0  0  0
   -4.2885   20.4305   66.2887 C   0  0  0  0  0  0  0  0  0  0  0  0
   -4.9684   21.5145   65.8586 C   0  0  0  0  0  0  0  0  0  0  0  0
   -6.3744   21.4842   65.8345 C   0  0  0  0  0  0  0  0  0  0  0  0
   -7.0549   20.4513   66.4027 C   0  0  0  0  0  0  0  0  0  0  0  0
  -12.5809   16.5952   75.6959 O   0  0  0  0  0  0  0  0  0  0  0  0
  -11.8949   14.5562   75.6570 O   0  0  0  0  0  0  0  0  0  0  0  0
   -4.1169   22.6200   65.1757 C   0  0  0  0  0  0  0  0  0  0  0  0
  1  2  2  0
  1  6  1  0
  1 11  1  0
  2  3  1  0
  3  4  1  0
  3  7  1  0
  4  9  2  0
  4  5  1  0
  5  6  1  0
  5  8  1  0
  6 10  2  0
  8 13  1  0
 11 12  3  0
 16 19  1  0
 13 20  1  0
 19 26  2  0
 19 27  1  0
 23 28  1  0
 20 21  2  0
 21 22  1  0
 22 23  2  0
 23 24  1  0
 24 25  2  0
 25 20  1  0
  7 18  2  0
 18 17  1  0
 17 16  2  0
 16 15  1  0
 15 14  2  0
 14  7  1  0
M  END

$$$$
No_212-gen_results_new/Mpro_initial_molecule_p3/2024-06-19-20-31-25/
     RDKit          3D

 28 30  0  0  0  0  0  0  0  0999 V2000
  -10.3383   15.1532   67.5971 C   0  0  0  0  0  0  0  0  0  0  0  0
  -10.7220   15.1619   68.8301 N   0  0  0  0  0  0  0  0  0  0  0  0
  -10.4044   16.2024   69.6852 N   0  0  0  0  0  0  0  0  0  0  0  0
   -9.7271   17.3221   69.2607 C   0  0  0  0  0  0  0  0  0  0  0  0
   -9.3095   17.3212   67.9557 N   0  0  0  0  0  0  0  0  0  0  0  0
   -9.5450   16.2958   67.0814 C   0  0  0  0  0  0  0  0  0  0  0  0
  -10.8644   16.0907   71.0374 C   0  0  0  0  0  0  0  0  0  0  0  0
   -8.5330   18.4792   67.4604 C   0  0  0  0  0  0  0  0  0  0  0  0
   -9.5433   18.2987   69.9938 O   0  0  0  0  0  0  0  0  0  0  0  0
   -9.1481   16.2876   65.9124 O   0  0  0  0  0  0  0  0  0  0  0  0
  -10.7304   14.0247   66.8209 C   0  0  0  0  0  0  0  0  0  0  0  0
  -11.1003   13.0895   66.2465 N   0  0  0  0  0  0  0  0  0  0  0  0
   -7.0275   18.2876   67.7219 C   0  0  0  0  0  0  0  0  0  0  0  0
  -10.0126   16.3511   72.1395 C   0  0  0  0  0  0  0  0  0  0  0  0
  -10.4883   16.2212   73.4591 C   0  0  0  0  0  0  0  0  0  0  0  0
  -11.8103   15.8022   73.6966 C   0  0  0  0  0  0  0  0  0  0  0  0
  -12.6594   15.5153   72.6113 C   0  0  0  0  0  0  0  0  0  0  0  0
  -12.1896   15.6561   71.2886 C   0  0  0  0  0  0  0  0  0  0  0  0
  -12.2768   15.6000   75.1088 C   0  0  0  0  0  0  0  0  0  0  0  0
   -6.4701   16.9812   68.0727 Cl  0  0  0  0  0  0  0  0  0  0  0  0
  -12.3537   14.5919   75.5989 O   0  0  0  0  0  0  0  0  0  0  0  0
  -12.2285   16.6676   75.8386 O   0  0  0  0  0  0  0  0  0  0  0  0
   -6.2233   18.9974   66.6609 C   0  0  0  0  0  0  0  0  0  0  0  0
   -6.7499   19.7548   65.6179 C   0  0  0  0  0  0  0  0  0  0  0  0
   -8.1379   20.0552   65.6124 C   0  0  0  0  0  0  0  0  0  0  0  0
   -9.0668   19.2570   66.4201 C   0  0  0  0  0  0  0  0  0  0  0  0
   -5.8314   20.6024   64.8686 C   0  0  0  0  0  0  0  0  0  0  0  0
   -5.8602   20.5813   63.6586 N   0  0  0  0  0  0  0  0  0  0  0  0
  1  2  2  0
  1  6  1  0
  1 11  1  0
  2  3  1  0
  3  4  1  0
  3  7  1  0
  4  9  2  0
  4  5  1  0
  5  6  1  0
  5  8  1  0
  6 10  2  0
 11 12  3  0
 16 19  1  0
 13 20  1  0
 19 21  2  0
 19 22  1  0
 24 27  1  0
 27 28  1  0
  8 13  2  0
 13 23  1  0
 23 24  2  0
 24 25  1  0
 25 26  2  0
 26  8  1  0
  7 18  2  0
 18 17  1  0
 17 16  2  0
 16 15  1  0
 15 14  2  0
 14  7  1  0
M  END

$$$$
No_213-gen_results_new/Mpro_initial_molecule_p3/2024-06-19-20-31-25/
     RDKit          3D

 28 30  0  0  0  0  0  0  0  0999 V2000
  -10.3383   15.1532   67.5971 C   0  0  0  0  0  0  0  0  0  0  0  0
  -10.7220   15.1619   68.8301 N   0  0  0  0  0  0  0  0  0  0  0  0
  -10.4044   16.2024   69.6852 N   0  0  0  0  0  0  0  0  0  0  0  0
   -9.7271   17.3221   69.2607 C   0  0  0  0  0  0  0  0  0  0  0  0
   -9.3095   17.3212   67.9557 N   0  0  0  0  0  0  0  0  0  0  0  0
   -9.5450   16.2958   67.0814 C   0  0  0  0  0  0  0  0  0  0  0  0
  -10.8644   16.0907   71.0374 C   0  0  0  0  0  0  0  0  0  0  0  0
   -8.5330   18.4792   67.4604 C   0  0  0  0  0  0  0  0  0  0  0  0
   -9.5433   18.2987   69.9938 O   0  0  0  0  0  0  0  0  0  0  0  0
   -9.1481   16.2876   65.9124 O   0  0  0  0  0  0  0  0  0  0  0  0
  -10.7304   14.0247   66.8209 C   0  0  0  0  0  0  0  0  0  0  0  0
  -11.1003   13.0895   66.2465 N   0  0  0  0  0  0  0  0  0  0  0  0
   -7.0275   18.2876   67.7219 C   0  0  0  0  0  0  0  0  0  0  0  0
  -10.0126   16.3511   72.1395 C   0  0  0  0  0  0  0  0  0  0  0  0
  -10.4883   16.2212   73.4591 C   0  0  0  0  0  0  0  0  0  0  0  0
  -11.8103   15.8022   73.6966 C   0  0  0  0  0  0  0  0  0  0  0  0
  -12.6594   15.5153   72.6113 C   0  0  0  0  0  0  0  0  0  0  0  0
  -12.1896   15.6561   71.2886 C   0  0  0  0  0  0  0  0  0  0  0  0
  -12.3486   15.5799   75.3255 Cl  0  0  0  0  0  0  0  0  0  0  0  0
   -6.5558   17.2018   67.9045 O   0  0  0  0  0  0  0  0  0  0  0  0
   -6.3090   19.3658   67.4558 N   0  0  0  0  0  0  0  0  0  0  0  0
   -5.0861   19.8317   67.3904 C   0  0  0  0  0  0  0  0  0  0  0  0
   -4.3998   19.9209   68.6167 C   0  0  0  0  0  0  0  0  0  0  0  0
   -3.3616   19.4466   68.8479 C   0  0  0  0  0  0  0  0  0  0  0  0
   -2.6614   18.8795   67.6411 N   0  0  0  0  0  0  0  0  0  0  0  0
   -3.1490   18.7444   66.4840 C   0  0  0  0  0  0  0  0  0  0  0  0
   -4.4141   19.1443   66.3526 C   0  0  0  0  0  0  0  0  0  0  0  0
   -2.5018   19.6304   69.9560 N   0  0  0  0  0  0  0  0  0  0  0  0
  1  2  2  0
  1  6  1  0
  1 11  1  0
  2  3  1  0
  3  4  1  0
  3  7  1  0
  4  9  2  0
  4  5  1  0
  5  6  1  0
  5  8  1  0
  6 10  2  0
  8 13  1  0
 11 12  3  0
 16 19  1  0
 13 20  2  0
 13 21  1  0
 21 22  1  0
 24 28  1  0
 22 23  2  0
 23 24  1  0
 24 25  2  0
 25 26  1  0
 26 27  2  0
 27 22  1  0
  7 18  2  0
 18 17  1  0
 17 16  2  0
 16 15  1  0
 15 14  2  0
 14  7  1  0
M  END

$$$$
No_214-gen_results_new/Mpro_initial_molecule_p3/2024-06-19-20-31-25/
     RDKit          3D

 28 30  0  0  0  0  0  0  0  0999 V2000
  -10.3383   15.1532   67.5971 C   0  0  0  0  0  0  0  0  0  0  0  0
  -10.7220   15.1619   68.8301 N   0  0  0  0  0  0  0  0  0  0  0  0
  -10.4044   16.2024   69.6852 N   0  0  0  0  0  0  0  0  0  0  0  0
   -9.7271   17.3221   69.2607 C   0  0  0  0  0  0  0  0  0  0  0  0
   -9.3095   17.3212   67.9557 N   0  0  0  0  0  0  0  0  0  0  0  0
   -9.5450   16.2958   67.0814 C   0  0  0  0  0  0  0  0  0  0  0  0
  -10.8644   16.0907   71.0374 C   0  0  0  0  0  0  0  0  0  0  0  0
   -8.5330   18.4792   67.4604 C   0  0  0  0  0  0  0  0  0  0  0  0
   -9.5433   18.2987   69.9938 O   0  0  0  0  0  0  0  0  0  0  0  0
   -9.1481   16.2876   65.9124 O   0  0  0  0  0  0  0  0  0  0  0  0
  -10.7304   14.0247   66.8209 C   0  0  0  0  0  0  0  0  0  0  0  0
  -11.1003   13.0895   66.2465 N   0  0  0  0  0  0  0  0  0  0  0  0
   -7.0275   18.2876   67.7219 C   0  0  0  0  0  0  0  0  0  0  0  0
  -10.0126   16.3511   72.1395 C   0  0  0  0  0  0  0  0  0  0  0  0
  -10.4883   16.2212   73.4591 C   0  0  0  0  0  0  0  0  0  0  0  0
  -11.8103   15.8022   73.6966 C   0  0  0  0  0  0  0  0  0  0  0  0
  -12.6594   15.5153   72.6113 C   0  0  0  0  0  0  0  0  0  0  0  0
  -12.1896   15.6561   71.2886 C   0  0  0  0  0  0  0  0  0  0  0  0
  -12.2484   15.6088   75.0145 O   0  0  0  0  0  0  0  0  0  0  0  0
   -6.5341   17.3731   68.3686 C   0  0  0  0  0  0  0  0  0  0  0  0
   -5.1307   17.1884   68.5569 C   0  0  0  0  0  0  0  0  0  0  0  0
   -6.2353   18.5839   66.5227 C   0  0  0  0  0  0  0  0  0  0  0  0
   -4.8739   18.3559   66.5018 C   0  0  0  0  0  0  0  0  0  0  0  0
   -4.3443   17.5536   67.4636 C   0  0  0  0  0  0  0  0  0  0  0  0
  -11.8769   16.5248   75.9058 C   0  0  0  0  0  0  0  0  0  0  0  0
  -14.0783   14.8969   72.8038 C   0  0  0  0  0  0  0  0  0  0  0  0
   -2.9635   17.2324   67.3933 N   0  0  0  0  0  0  0  0  0  0  0  0
   -2.2209   17.4654   66.4014 C   0  0  0  0  0  0  0  0  0  0  0  0
  1  2  2  0
  1  6  1  0
  1 11  1  0
  2  3  1  0
  3  4  1  0
  3  7  1  0
  4  9  2  0
  4  5  1  0
  5  6  1  0
  5  8  1  0
  6 10  2  0
  8 13  1  0
 11 12  3  0
 16 19  1  0
 19 25  1  0
 17 26  1  0
 24 27  1  0
 27 28  1  0
 13 20  2  0
 20 21  1  0
 21 24  2  0
 24 23  1  0
 23 22  2  0
 22 13  1  0
  7 18  2  0
 18 17  1  0
 17 16  2  0
 16 15  1  0
 15 14  2  0
 14  7  1  0
M  END

$$$$
No_215-gen_results_new/Mpro_initial_molecule_p3/2024-06-19-20-31-25/
     RDKit          3D

 28 30  0  0  0  0  0  0  0  0999 V2000
  -10.3383   15.1532   67.5971 C   0  0  0  0  0  0  0  0  0  0  0  0
  -10.7220   15.1619   68.8301 N   0  0  0  0  0  0  0  0  0  0  0  0
  -10.4044   16.2024   69.6852 N   0  0  0  0  0  0  0  0  0  0  0  0
   -9.7271   17.3221   69.2607 C   0  0  0  0  0  0  0  0  0  0  0  0
   -9.3095   17.3212   67.9557 N   0  0  0  0  0  0  0  0  0  0  0  0
   -9.5450   16.2958   67.0814 C   0  0  0  0  0  0  0  0  0  0  0  0
  -10.8644   16.0907   71.0374 C   0  0  0  0  0  0  0  0  0  0  0  0
   -8.5330   18.4792   67.4604 C   0  0  0  0  0  0  0  0  0  0  0  0
   -9.5433   18.2987   69.9938 O   0  0  0  0  0  0  0  0  0  0  0  0
   -9.1481   16.2876   65.9124 O   0  0  0  0  0  0  0  0  0  0  0  0
  -10.7304   14.0247   66.8209 C   0  0  0  0  0  0  0  0  0  0  0  0
  -11.1003   13.0895   66.2465 N   0  0  0  0  0  0  0  0  0  0  0  0
   -7.0275   18.2876   67.7219 C   0  0  0  0  0  0  0  0  0  0  0  0
  -10.0126   16.3511   72.1395 C   0  0  0  0  0  0  0  0  0  0  0  0
  -10.4883   16.2212   73.4591 C   0  0  0  0  0  0  0  0  0  0  0  0
  -11.8103   15.8022   73.6966 C   0  0  0  0  0  0  0  0  0  0  0  0
  -12.6594   15.5153   72.6113 C   0  0  0  0  0  0  0  0  0  0  0  0
  -12.1896   15.6561   71.2886 C   0  0  0  0  0  0  0  0  0  0  0  0
  -12.2484   15.6088   75.0145 O   0  0  0  0  0  0  0  0  0  0  0  0
   -6.3059   19.3591   66.9155 C   0  0  0  0  0  0  0  0  0  0  0  0
   -4.9923   19.4463   66.9703 C   0  0  0  0  0  0  0  0  0  0  0  0
   -4.2907   20.4330   66.2898 C   0  0  0  0  0  0  0  0  0  0  0  0
   -4.9709   21.5154   65.8584 C   0  0  0  0  0  0  0  0  0  0  0  0
   -6.3875   21.4522   65.7832 C   0  0  0  0  0  0  0  0  0  0  0  0
   -7.0587   20.4371   66.3781 C   0  0  0  0  0  0  0  0  0  0  0  0
   -4.1822   22.5427   65.2043 N   0  0  0  0  0  0  0  0  0  0  0  0
  -12.3386   16.7900   75.7237 C   0  0  0  0  0  0  0  0  0  0  0  0
  -13.9453   14.9691   72.7876 F   0  0  0  0  0  0  0  0  0  0  0  0
  1  2  2  0
  1  6  1  0
  1 11  1  0
  2  3  1  0
  3  4  1  0
  3  7  1  0
  4  9  2  0
  4  5  1  0
  5  6  1  0
  5  8  1  0
  6 10  2  0
  8 13  1  0
 11 12  3  0
 16 19  1  0
 13 20  1  0
 23 26  1  0
 19 27  1  0
 17 28  1  0
 20 21  2  0
 21 22  1  0
 22 23  2  0
 23 24  1  0
 24 25  2  0
 25 20  1  0
  7 18  2  0
 18 17  1  0
 17 16  2  0
 16 15  1  0
 15 14  2  0
 14  7  1  0
M  END

$$$$
No_216-gen_results_new/Mpro_initial_molecule_p3/2024-06-19-20-31-25/
     RDKit          3D

 28 30  0  0  0  0  0  0  0  0999 V2000
  -10.3383   15.1532   67.5971 C   0  0  0  0  0  0  0  0  0  0  0  0
  -10.7220   15.1619   68.8301 N   0  0  0  0  0  0  0  0  0  0  0  0
  -10.4044   16.2024   69.6852 N   0  0  0  0  0  0  0  0  0  0  0  0
   -9.7271   17.3221   69.2607 C   0  0  0  0  0  0  0  0  0  0  0  0
   -9.3095   17.3212   67.9557 N   0  0  0  0  0  0  0  0  0  0  0  0
   -9.5450   16.2958   67.0814 C   0  0  0  0  0  0  0  0  0  0  0  0
  -10.8644   16.0907   71.0374 C   0  0  0  0  0  0  0  0  0  0  0  0
   -8.5330   18.4792   67.4604 C   0  0  0  0  0  0  0  0  0  0  0  0
   -9.5433   18.2987   69.9938 O   0  0  0  0  0  0  0  0  0  0  0  0
   -9.1481   16.2876   65.9124 O   0  0  0  0  0  0  0  0  0  0  0  0
  -10.7304   14.0247   66.8209 C   0  0  0  0  0  0  0  0  0  0  0  0
  -11.1003   13.0895   66.2465 N   0  0  0  0  0  0  0  0  0  0  0  0
   -7.0275   18.2876   67.7219 C   0  0  0  0  0  0  0  0  0  0  0  0
  -10.0126   16.3511   72.1395 C   0  0  0  0  0  0  0  0  0  0  0  0
  -10.4883   16.2212   73.4591 C   0  0  0  0  0  0  0  0  0  0  0  0
  -11.8103   15.8022   73.6966 C   0  0  0  0  0  0  0  0  0  0  0  0
  -12.6594   15.5153   72.6113 C   0  0  0  0  0  0  0  0  0  0  0  0
  -12.1896   15.6561   71.2886 C   0  0  0  0  0  0  0  0  0  0  0  0
  -12.3486   15.5799   75.3255 Cl  0  0  0  0  0  0  0  0  0  0  0  0
   -6.5558   17.2018   67.9045 O   0  0  0  0  0  0  0  0  0  0  0  0
   -6.4130   19.3147   68.0692 N   0  0  0  0  0  0  0  0  0  0  0  0
   -4.9880   19.3264   68.2155 C   0  0  0  0  0  0  0  0  0  0  0  0
   -4.6408   19.3966   69.5241 C   0  0  0  0  0  0  0  0  0  0  0  0
   -3.2272   19.5555   69.7555 N   0  0  0  0  0  0  0  0  0  0  0  0
   -2.4191   19.7547   68.7442 C   0  0  0  0  0  0  0  0  0  0  0  0
   -4.1283   19.5344   67.2110 C   0  0  0  0  0  0  0  0  0  0  0  0
   -4.5317   19.5908   65.8208 C   0  0  0  0  0  0  0  0  0  0  0  0
   -2.7862   19.7568   67.4852 C   0  0  0  0  0  0  0  0  0  0  0  0
  1  2  2  0
  1  6  1  0
  1 11  1  0
  2  3  1  0
  3  4  1  0
  3  7  1  0
  4  9  2  0
  4  5  1  0
  5  6  1  0
  5  8  1  0
  6 10  2  0
  8 13  1  0
 11 12  3  0
 16 19  1  0
 13 20  2  0
 13 21  1  0
 21 22  1  0
 26 27  1  0
  7 18  2  0
 18 17  1  0
 17 16  2  0
 16 15  1  0
 15 14  2  0
 14  7  1  0
 22 23  2  0
 23 24  1  0
 24 25  2  0
 25 28  1  0
 28 26  2  0
 26 22  1  0
M  END

$$$$
No_217-gen_results_new/Mpro_initial_molecule_p3/2024-06-19-20-31-25/
     RDKit          3D

 28 30  0  0  0  0  0  0  0  0999 V2000
  -10.3383   15.1532   67.5971 C   0  0  0  0  0  0  0  0  0  0  0  0
  -10.7220   15.1619   68.8301 N   0  0  0  0  0  0  0  0  0  0  0  0
  -10.4044   16.2024   69.6852 N   0  0  0  0  0  0  0  0  0  0  0  0
   -9.7271   17.3221   69.2607 C   0  0  0  0  0  0  0  0  0  0  0  0
   -9.3095   17.3212   67.9557 N   0  0  0  0  0  0  0  0  0  0  0  0
   -9.5450   16.2958   67.0814 C   0  0  0  0  0  0  0  0  0  0  0  0
  -10.8644   16.0907   71.0374 C   0  0  0  0  0  0  0  0  0  0  0  0
   -8.5330   18.4792   67.4604 C   0  0  0  0  0  0  0  0  0  0  0  0
   -9.5433   18.2987   69.9938 O   0  0  0  0  0  0  0  0  0  0  0  0
   -9.1481   16.2876   65.9124 O   0  0  0  0  0  0  0  0  0  0  0  0
  -10.7304   14.0247   66.8209 C   0  0  0  0  0  0  0  0  0  0  0  0
  -11.1003   13.0895   66.2465 N   0  0  0  0  0  0  0  0  0  0  0  0
   -7.0275   18.2876   67.7219 C   0  0  0  0  0  0  0  0  0  0  0  0
  -10.0126   16.3511   72.1395 C   0  0  0  0  0  0  0  0  0  0  0  0
  -10.4883   16.2212   73.4591 C   0  0  0  0  0  0  0  0  0  0  0  0
  -11.8103   15.8022   73.6966 C   0  0  0  0  0  0  0  0  0  0  0  0
  -12.6594   15.5153   72.6113 C   0  0  0  0  0  0  0  0  0  0  0  0
  -12.1896   15.6561   71.2886 C   0  0  0  0  0  0  0  0  0  0  0  0
  -12.2768   15.6000   75.1088 C   0  0  0  0  0  0  0  0  0  0  0  0
   -6.5341   17.3729   68.3685 C   0  0  0  0  0  0  0  0  0  0  0  0
   -5.1249   17.1827   68.5818 C   0  0  0  0  0  0  0  0  0  0  0  0
   -4.4393   18.0516   67.8378 C   0  0  0  0  0  0  0  0  0  0  0  0
   -4.8689   19.0478   67.0695 C   0  0  0  0  0  0  0  0  0  0  0  0
   -6.2627   19.1643   66.9261 C   0  0  0  0  0  0  0  0  0  0  0  0
  -12.9868   16.5587   75.4318 F   0  0  0  0  0  0  0  0  0  0  0  0
  -11.2720   15.5027   75.8802 F   0  0  0  0  0  0  0  0  0  0  0  0
  -13.0961   14.4886   74.9601 F   0  0  0  0  0  0  0  0  0  0  0  0
   -4.1149   19.9056   66.3818 F   0  0  0  0  0  0  0  0  0  0  0  0
  1  2  2  0
  1  6  1  0
  1 11  1  0
  2  3  1  0
  3  4  1  0
  3  7  1  0
  4  9  2  0
  4  5  1  0
  5  6  1  0
  5  8  1  0
  6 10  2  0
  8 13  1  0
 11 12  3  0
 16 19  1  0
 19 25  1  0
 19 26  1  0
 19 27  1  0
 23 28  1  0
 13 20  2  0
 20 21  1  0
 21 22  2  0
 22 23  1  0
 23 24  2  0
 24 13  1  0
  7 18  2  0
 18 17  1  0
 17 16  2  0
 16 15  1  0
 15 14  2  0
 14  7  1  0
M  END

$$$$
No_218-gen_results_new/Mpro_initial_molecule_p3/2024-06-19-20-31-25/
     RDKit          3D

 26 28  0  0  0  0  0  0  0  0999 V2000
  -10.3383   15.1532   67.5971 C   0  0  0  0  0  0  0  0  0  0  0  0
  -10.7220   15.1619   68.8301 N   0  0  0  0  0  0  0  0  0  0  0  0
  -10.4044   16.2024   69.6852 N   0  0  0  0  0  0  0  0  0  0  0  0
   -9.7271   17.3221   69.2607 C   0  0  0  0  0  0  0  0  0  0  0  0
   -9.3095   17.3212   67.9557 N   0  0  0  0  0  0  0  0  0  0  0  0
   -9.5450   16.2958   67.0814 C   0  0  0  0  0  0  0  0  0  0  0  0
  -10.8644   16.0907   71.0374 C   0  0  0  0  0  0  0  0  0  0  0  0
   -8.5330   18.4792   67.4604 C   0  0  0  0  0  0  0  0  0  0  0  0
   -9.5433   18.2987   69.9938 O   0  0  0  0  0  0  0  0  0  0  0  0
   -9.1481   16.2876   65.9124 O   0  0  0  0  0  0  0  0  0  0  0  0
  -10.7304   14.0247   66.8209 C   0  0  0  0  0  0  0  0  0  0  0  0
  -11.1003   13.0895   66.2465 N   0  0  0  0  0  0  0  0  0  0  0  0
   -7.0275   18.2876   67.7219 C   0  0  0  0  0  0  0  0  0  0  0  0
  -10.0126   16.3511   72.1395 C   0  0  0  0  0  0  0  0  0  0  0  0
  -10.4883   16.2212   73.4591 C   0  0  0  0  0  0  0  0  0  0  0  0
  -11.8103   15.8022   73.6966 C   0  0  0  0  0  0  0  0  0  0  0  0
  -12.6594   15.5153   72.6113 C   0  0  0  0  0  0  0  0  0  0  0  0
  -12.1896   15.6561   71.2886 C   0  0  0  0  0  0  0  0  0  0  0  0
  -12.2484   15.6088   75.0145 O   0  0  0  0  0  0  0  0  0  0  0  0
   -6.3059   19.3591   66.9155 C   0  0  0  0  0  0  0  0  0  0  0  0
   -4.9923   19.4463   66.9703 C   0  0  0  0  0  0  0  0  0  0  0  0
   -4.2907   20.4330   66.2898 C   0  0  0  0  0  0  0  0  0  0  0  0
   -4.9709   21.5154   65.8584 C   0  0  0  0  0  0  0  0  0  0  0  0
   -6.3875   21.4522   65.7832 C   0  0  0  0  0  0  0  0  0  0  0  0
   -7.0587   20.4371   66.3781 C   0  0  0  0  0  0  0  0  0  0  0  0
   -4.2108   22.5415   65.2151 O   0  0  0  0  0  0  0  0  0  0  0  0
  1  2  2  0
  1  6  1  0
  1 11  1  0
  2  3  1  0
  3  4  1  0
  3  7  1  0
  4  9  2  0
  4  5  1  0
  5  6  1  0
  5  8  1  0
  6 10  2  0
  8 13  1  0
 11 12  3  0
 16 19  1  0
 13 20  1  0
 23 26  1  0
 20 21  2  0
 21 22  1  0
 22 23  2  0
 23 24  1  0
 24 25  2  0
 25 20  1  0
  7 18  2  0
 18 17  1  0
 17 16  2  0
 16 15  1  0
 15 14  2  0
 14  7  1  0
M  END

$$$$
No_219-gen_results_new/Mpro_initial_molecule_p3/2024-06-19-20-31-25/
     RDKit          3D

 25 27  0  0  0  0  0  0  0  0999 V2000
  -10.3383   15.1532   67.5971 C   0  0  0  0  0  0  0  0  0  0  0  0
  -10.7220   15.1619   68.8301 N   0  0  0  0  0  0  0  0  0  0  0  0
  -10.4044   16.2024   69.6852 N   0  0  0  0  0  0  0  0  0  0  0  0
   -9.7271   17.3221   69.2607 C   0  0  0  0  0  0  0  0  0  0  0  0
   -9.3095   17.3212   67.9557 N   0  0  0  0  0  0  0  0  0  0  0  0
   -9.5450   16.2958   67.0814 C   0  0  0  0  0  0  0  0  0  0  0  0
  -10.8644   16.0907   71.0374 C   0  0  0  0  0  0  0  0  0  0  0  0
   -8.5330   18.4792   67.4604 C   0  0  0  0  0  0  0  0  0  0  0  0
   -9.5433   18.2987   69.9938 O   0  0  0  0  0  0  0  0  0  0  0  0
   -9.1481   16.2876   65.9124 O   0  0  0  0  0  0  0  0  0  0  0  0
  -10.7304   14.0247   66.8209 C   0  0  0  0  0  0  0  0  0  0  0  0
  -11.1003   13.0895   66.2465 N   0  0  0  0  0  0  0  0  0  0  0  0
   -7.0275   18.2876   67.7219 C   0  0  0  0  0  0  0  0  0  0  0  0
  -10.0126   16.3511   72.1395 C   0  0  0  0  0  0  0  0  0  0  0  0
  -10.4883   16.2212   73.4591 C   0  0  0  0  0  0  0  0  0  0  0  0
  -11.8103   15.8022   73.6966 C   0  0  0  0  0  0  0  0  0  0  0  0
  -12.6594   15.5153   72.6113 C   0  0  0  0  0  0  0  0  0  0  0  0
  -12.1896   15.6561   71.2886 C   0  0  0  0  0  0  0  0  0  0  0  0
  -12.3486   15.5799   75.3255 Cl  0  0  0  0  0  0  0  0  0  0  0  0
   -6.5344   17.3734   68.3696 C   0  0  0  0  0  0  0  0  0  0  0  0
   -6.9401   16.3678   69.2762 C   0  0  0  0  0  0  0  0  0  0  0  0
   -6.0793   15.4589   69.8778 C   0  0  0  0  0  0  0  0  0  0  0  0
   -4.8055   15.9143   69.6173 C   0  0  0  0  0  0  0  0  0  0  0  0
   -4.2512   16.7889   69.0110 C   0  0  0  0  0  0  0  0  0  0  0  0
   -5.0609   17.5289   68.2591 C   0  0  0  0  0  0  0  0  0  0  0  0
  1  2  2  0
  1  6  1  0
  1 11  1  0
  2  3  1  0
  3  4  1  0
  3  7  1  0
  4  9  2  0
  4  5  1  0
  5  6  1  0
  5  8  1  0
  6 10  2  0
  8 13  1  0
 11 12  3  0
 16 19  1  0
 13 20  1  0
 20 21  2  0
 21 22  1  0
 22 23  2  0
 23 24  1  0
 24 25  2  0
 25 20  1  0
  7 18  2  0
 18 17  1  0
 17 16  2  0
 16 15  1  0
 15 14  2  0
 14  7  1  0
M  END

$$$$
No_220-gen_results_new/Mpro_initial_molecule_p3/2024-06-19-20-31-25/
     RDKit          3D

 28 30  0  0  0  0  0  0  0  0999 V2000
  -10.3383   15.1532   67.5971 C   0  0  0  0  0  0  0  0  0  0  0  0
  -10.7220   15.1619   68.8301 N   0  0  0  0  0  0  0  0  0  0  0  0
  -10.4044   16.2024   69.6852 N   0  0  0  0  0  0  0  0  0  0  0  0
   -9.7271   17.3221   69.2607 C   0  0  0  0  0  0  0  0  0  0  0  0
   -9.3095   17.3212   67.9557 N   0  0  0  0  0  0  0  0  0  0  0  0
   -9.5450   16.2958   67.0814 C   0  0  0  0  0  0  0  0  0  0  0  0
  -10.8644   16.0907   71.0374 C   0  0  0  0  0  0  0  0  0  0  0  0
   -8.5330   18.4792   67.4604 C   0  0  0  0  0  0  0  0  0  0  0  0
   -9.5433   18.2987   69.9938 O   0  0  0  0  0  0  0  0  0  0  0  0
   -9.1481   16.2876   65.9124 O   0  0  0  0  0  0  0  0  0  0  0  0
  -10.7304   14.0247   66.8209 C   0  0  0  0  0  0  0  0  0  0  0  0
  -11.1003   13.0895   66.2465 N   0  0  0  0  0  0  0  0  0  0  0  0
   -7.0275   18.2876   67.7219 C   0  0  0  0  0  0  0  0  0  0  0  0
  -10.0126   16.3511   72.1395 C   0  0  0  0  0  0  0  0  0  0  0  0
  -10.4883   16.2212   73.4591 C   0  0  0  0  0  0  0  0  0  0  0  0
  -11.8103   15.8022   73.6966 C   0  0  0  0  0  0  0  0  0  0  0  0
  -12.6594   15.5153   72.6113 C   0  0  0  0  0  0  0  0  0  0  0  0
  -12.1896   15.6561   71.2886 C   0  0  0  0  0  0  0  0  0  0  0  0
  -12.2768   15.6000   75.1088 C   0  0  0  0  0  0  0  0  0  0  0  0
   -6.5341   17.3729   68.3685 C   0  0  0  0  0  0  0  0  0  0  0  0
   -5.1249   17.1827   68.5818 C   0  0  0  0  0  0  0  0  0  0  0  0
   -4.4393   18.0516   67.8378 C   0  0  0  0  0  0  0  0  0  0  0  0
   -4.8689   19.0478   67.0695 C   0  0  0  0  0  0  0  0  0  0  0  0
   -6.2627   19.1643   66.9261 C   0  0  0  0  0  0  0  0  0  0  0  0
  -12.5817   16.5942   75.6961 O   0  0  0  0  0  0  0  0  0  0  0  0
  -12.1192   14.5198   75.5992 O   0  0  0  0  0  0  0  0  0  0  0  0
  -14.0776   14.9558   72.8078 C   0  0  0  0  0  0  0  0  0  0  0  0
   -6.9226   20.2697   66.0909 C   0  0  0  0  0  0  0  0  0  0  0  0
  1  2  2  0
  1  6  1  0
  1 11  1  0
  2  3  1  0
  3  4  1  0
  3  7  1  0
  4  9  2  0
  4  5  1  0
  5  6  1  0
  5  8  1  0
  6 10  2  0
  8 13  1  0
 11 12  3  0
 16 19  1  0
 19 25  2  0
 19 26  1  0
 17 27  1  0
 24 28  1  0
 13 20  2  0
 20 21  1  0
 21 22  2  0
 22 23  1  0
 23 24  2  0
 24 13  1  0
  7 18  2  0
 18 17  1  0
 17 16  2  0
 16 15  1  0
 15 14  2  0
 14  7  1  0
M  END

$$$$
No_221-gen_results_new/Mpro_initial_molecule_p3/2024-06-19-20-31-25/
     RDKit          3D

 28 30  0  0  0  0  0  0  0  0999 V2000
  -10.3383   15.1532   67.5971 C   0  0  0  0  0  0  0  0  0  0  0  0
  -10.7220   15.1619   68.8301 N   0  0  0  0  0  0  0  0  0  0  0  0
  -10.4044   16.2024   69.6852 N   0  0  0  0  0  0  0  0  0  0  0  0
   -9.7271   17.3221   69.2607 C   0  0  0  0  0  0  0  0  0  0  0  0
   -9.3095   17.3212   67.9557 N   0  0  0  0  0  0  0  0  0  0  0  0
   -9.5450   16.2958   67.0814 C   0  0  0  0  0  0  0  0  0  0  0  0
  -10.8644   16.0907   71.0374 C   0  0  0  0  0  0  0  0  0  0  0  0
   -8.5330   18.4792   67.4604 C   0  0  0  0  0  0  0  0  0  0  0  0
   -9.5433   18.2987   69.9938 O   0  0  0  0  0  0  0  0  0  0  0  0
   -9.1481   16.2876   65.9124 O   0  0  0  0  0  0  0  0  0  0  0  0
  -10.7304   14.0247   66.8209 C   0  0  0  0  0  0  0  0  0  0  0  0
  -11.1003   13.0895   66.2465 N   0  0  0  0  0  0  0  0  0  0  0  0
   -7.0275   18.2876   67.7219 C   0  0  0  0  0  0  0  0  0  0  0  0
  -10.0126   16.3511   72.1395 C   0  0  0  0  0  0  0  0  0  0  0  0
  -10.4883   16.2212   73.4591 C   0  0  0  0  0  0  0  0  0  0  0  0
  -11.8103   15.8022   73.6966 C   0  0  0  0  0  0  0  0  0  0  0  0
  -12.6594   15.5153   72.6113 C   0  0  0  0  0  0  0  0  0  0  0  0
  -12.1896   15.6561   71.2886 C   0  0  0  0  0  0  0  0  0  0  0  0
  -12.3486   15.5799   75.3255 Cl  0  0  0  0  0  0  0  0  0  0  0  0
   -6.5344   17.3734   68.3696 C   0  0  0  0  0  0  0  0  0  0  0  0
   -5.1310   17.1884   68.5570 C   0  0  0  0  0  0  0  0  0  0  0  0
   -6.2282   19.1878   66.9085 C   0  0  0  0  0  0  0  0  0  0  0  0
   -4.8273   19.0031   67.0387 C   0  0  0  0  0  0  0  0  0  0  0  0
   -4.3061   18.0194   67.7979 C   0  0  0  0  0  0  0  0  0  0  0  0
  -13.9946   15.0203   72.7826 F   0  0  0  0  0  0  0  0  0  0  0  0
   -6.8560   20.2658   66.0643 C   0  0  0  0  0  0  0  0  0  0  0  0
   -6.1104   20.8514   65.3794 O   0  0  0  0  0  0  0  0  0  0  0  0
   -8.2350   20.2663   65.9809 N   0  0  0  0  0  0  0  0  0  0  0  0
  1  2  2  0
  1  6  1  0
  1 11  1  0
  2  3  1  0
  3  4  1  0
  3  7  1  0
  4  9  2  0
  4  5  1  0
  5  6  1  0
  5  8  1  0
  6 10  2  0
  8 13  1  0
 11 12  3  0
 16 19  1  0
 17 25  1  0
 22 26  1  0
 26 27  2  0
 26 28  1  0
 13 20  2  0
 20 21  1  0
 21 24  2  0
 24 23  1  0
 23 22  2  0
 22 13  1  0
  7 18  2  0
 18 17  1  0
 17 16  2  0
 16 15  1  0
 15 14  2  0
 14  7  1  0
M  END

$$$$
No_222-gen_results_new/Mpro_initial_molecule_p3/2024-06-19-20-31-25/
     RDKit          3D

 28 30  0  0  0  0  0  0  0  0999 V2000
  -10.3383   15.1532   67.5971 C   0  0  0  0  0  0  0  0  0  0  0  0
  -10.7220   15.1619   68.8301 N   0  0  0  0  0  0  0  0  0  0  0  0
  -10.4044   16.2024   69.6852 N   0  0  0  0  0  0  0  0  0  0  0  0
   -9.7271   17.3221   69.2607 C   0  0  0  0  0  0  0  0  0  0  0  0
   -9.3095   17.3212   67.9557 N   0  0  0  0  0  0  0  0  0  0  0  0
   -9.5450   16.2958   67.0814 C   0  0  0  0  0  0  0  0  0  0  0  0
  -10.8644   16.0907   71.0374 C   0  0  0  0  0  0  0  0  0  0  0  0
   -8.5330   18.4792   67.4604 C   0  0  0  0  0  0  0  0  0  0  0  0
   -9.5433   18.2987   69.9938 O   0  0  0  0  0  0  0  0  0  0  0  0
   -9.1481   16.2876   65.9124 O   0  0  0  0  0  0  0  0  0  0  0  0
  -10.7304   14.0247   66.8209 C   0  0  0  0  0  0  0  0  0  0  0  0
  -11.1003   13.0895   66.2465 N   0  0  0  0  0  0  0  0  0  0  0  0
   -7.0275   18.2876   67.7219 C   0  0  0  0  0  0  0  0  0  0  0  0
  -10.0126   16.3511   72.1395 C   0  0  0  0  0  0  0  0  0  0  0  0
  -10.4883   16.2212   73.4591 C   0  0  0  0  0  0  0  0  0  0  0  0
  -11.8103   15.8022   73.6966 C   0  0  0  0  0  0  0  0  0  0  0  0
  -12.6594   15.5153   72.6113 C   0  0  0  0  0  0  0  0  0  0  0  0
  -12.1896   15.6561   71.2886 C   0  0  0  0  0  0  0  0  0  0  0  0
  -12.2768   15.6000   75.1088 C   0  0  0  0  0  0  0  0  0  0  0  0
   -6.5341   17.3729   68.3685 C   0  0  0  0  0  0  0  0  0  0  0  0
   -5.1249   17.1827   68.5818 C   0  0  0  0  0  0  0  0  0  0  0  0
   -4.2977   17.9486   67.7745 C   0  0  0  0  0  0  0  0  0  0  0  0
   -2.9932   17.8728   67.7423 C   0  0  0  0  0  0  0  0  0  0  0  0
   -6.1801   19.0669   66.9482 C   0  0  0  0  0  0  0  0  0  0  0  0
   -4.8786   18.9291   66.9776 C   0  0  0  0  0  0  0  0  0  0  0  0
  -12.3528   14.5927   75.5997 O   0  0  0  0  0  0  0  0  0  0  0  0
  -12.4212   16.7486   75.8004 N   0  0  0  0  0  0  0  0  0  0  0  0
   -2.2901   18.3922   68.8238 N   0  0  0  0  0  0  0  0  0  0  0  0
  1  2  2  0
  1  6  1  0
  1 11  1  0
  2  3  1  0
  3  4  1  0
  3  7  1  0
  4  9  2  0
  4  5  1  0
  5  6  1  0
  5  8  1  0
  6 10  2  0
  8 13  1  0
 11 12  3  0
 16 19  1  0
 22 23  1  0
 19 26  2  0
 19 27  1  0
 23 28  1  0
 13 20  2  0
 20 21  1  0
 21 22  2  0
 22 25  1  0
 25 24  2  0
 24 13  1  0
  7 18  2  0
 18 17  1  0
 17 16  2  0
 16 15  1  0
 15 14  2  0
 14  7  1  0
M  END

$$$$
No_223-gen_results_new/Mpro_initial_molecule_p3/2024-06-19-20-31-25/
     RDKit          3D

 28 30  0  0  0  0  0  0  0  0999 V2000
  -10.3383   15.1532   67.5971 C   0  0  0  0  0  0  0  0  0  0  0  0
  -10.7220   15.1619   68.8301 N   0  0  0  0  0  0  0  0  0  0  0  0
  -10.4044   16.2024   69.6852 N   0  0  0  0  0  0  0  0  0  0  0  0
   -9.7271   17.3221   69.2607 C   0  0  0  0  0  0  0  0  0  0  0  0
   -9.3095   17.3212   67.9557 N   0  0  0  0  0  0  0  0  0  0  0  0
   -9.5450   16.2958   67.0814 C   0  0  0  0  0  0  0  0  0  0  0  0
  -10.8644   16.0907   71.0374 C   0  0  0  0  0  0  0  0  0  0  0  0
   -8.5330   18.4792   67.4604 C   0  0  0  0  0  0  0  0  0  0  0  0
   -9.5433   18.2987   69.9938 O   0  0  0  0  0  0  0  0  0  0  0  0
   -9.1481   16.2876   65.9124 O   0  0  0  0  0  0  0  0  0  0  0  0
  -10.7304   14.0247   66.8209 C   0  0  0  0  0  0  0  0  0  0  0  0
  -11.1003   13.0895   66.2465 N   0  0  0  0  0  0  0  0  0  0  0  0
   -7.0275   18.2876   67.7219 C   0  0  0  0  0  0  0  0  0  0  0  0
  -10.0126   16.3511   72.1395 C   0  0  0  0  0  0  0  0  0  0  0  0
  -10.4883   16.2212   73.4591 C   0  0  0  0  0  0  0  0  0  0  0  0
  -11.8103   15.8022   73.6966 C   0  0  0  0  0  0  0  0  0  0  0  0
  -12.6594   15.5153   72.6113 C   0  0  0  0  0  0  0  0  0  0  0  0
  -12.1896   15.6561   71.2886 C   0  0  0  0  0  0  0  0  0  0  0  0
  -12.2768   15.6000   75.1088 C   0  0  0  0  0  0  0  0  0  0  0  0
   -6.5341   17.3729   68.3685 C   0  0  0  0  0  0  0  0  0  0  0  0
   -5.1308   17.1882   68.5568 C   0  0  0  0  0  0  0  0  0  0  0  0
   -6.2352   18.5841   66.5228 C   0  0  0  0  0  0  0  0  0  0  0  0
   -4.8738   18.3561   66.5020 C   0  0  0  0  0  0  0  0  0  0  0  0
   -4.3443   17.5536   67.4637 C   0  0  0  0  0  0  0  0  0  0  0  0
  -12.3528   14.5928   75.5998 O   0  0  0  0  0  0  0  0  0  0  0  0
  -12.2293   16.6686   75.8378 O   0  0  0  0  0  0  0  0  0  0  0  0
  -14.3112   14.8758   72.8668 Cl  0  0  0  0  0  0  0  0  0  0  0  0
   -2.9802   17.2313   67.3801 O   0  0  0  0  0  0  0  0  0  0  0  0
  1  2  2  0
  1  6  1  0
  1 11  1  0
  2  3  1  0
  3  4  1  0
  3  7  1  0
  4  9  2  0
  4  5  1  0
  5  6  1  0
  5  8  1  0
  6 10  2  0
  8 13  1  0
 11 12  3  0
 16 19  1  0
 19 25  2  0
 19 26  1  0
 17 27  1  0
 24 28  1  0
 13 20  2  0
 20 21  1  0
 21 24  2  0
 24 23  1  0
 23 22  2  0
 22 13  1  0
  7 18  2  0
 18 17  1  0
 17 16  2  0
 16 15  1  0
 15 14  2  0
 14  7  1  0
M  END

$$$$
No_224-gen_results_new/Mpro_initial_molecule_p3/2024-06-19-20-31-25/
     RDKit          3D

 25 27  0  0  0  0  0  0  0  0999 V2000
  -10.3383   15.1532   67.5971 C   0  0  0  0  0  0  0  0  0  0  0  0
  -10.7220   15.1619   68.8301 N   0  0  0  0  0  0  0  0  0  0  0  0
  -10.4044   16.2024   69.6852 N   0  0  0  0  0  0  0  0  0  0  0  0
   -9.7271   17.3221   69.2607 C   0  0  0  0  0  0  0  0  0  0  0  0
   -9.3095   17.3212   67.9557 N   0  0  0  0  0  0  0  0  0  0  0  0
   -9.5450   16.2958   67.0814 C   0  0  0  0  0  0  0  0  0  0  0  0
  -10.8644   16.0907   71.0374 C   0  0  0  0  0  0  0  0  0  0  0  0
   -8.5330   18.4792   67.4604 C   0  0  0  0  0  0  0  0  0  0  0  0
   -9.5433   18.2987   69.9938 O   0  0  0  0  0  0  0  0  0  0  0  0
   -9.1481   16.2876   65.9124 O   0  0  0  0  0  0  0  0  0  0  0  0
  -10.7304   14.0247   66.8209 C   0  0  0  0  0  0  0  0  0  0  0  0
  -11.1003   13.0895   66.2465 N   0  0  0  0  0  0  0  0  0  0  0  0
   -7.0275   18.2876   67.7219 C   0  0  0  0  0  0  0  0  0  0  0  0
  -10.0126   16.3511   72.1395 C   0  0  0  0  0  0  0  0  0  0  0  0
  -10.4883   16.2212   73.4591 C   0  0  0  0  0  0  0  0  0  0  0  0
  -11.8103   15.8022   73.6966 C   0  0  0  0  0  0  0  0  0  0  0  0
  -12.6594   15.5153   72.6113 C   0  0  0  0  0  0  0  0  0  0  0  0
  -12.1896   15.6561   71.2886 C   0  0  0  0  0  0  0  0  0  0  0  0
  -12.3486   15.5799   75.3255 Cl  0  0  0  0  0  0  0  0  0  0  0  0
   -6.5344   17.3734   68.3696 C   0  0  0  0  0  0  0  0  0  0  0  0
   -5.1249   17.1828   68.5820 C   0  0  0  0  0  0  0  0  0  0  0  0
   -4.3548   17.9831   67.7399 N   0  0  0  0  0  0  0  0  0  0  0  0
   -6.1850   18.8948   66.7780 C   0  0  0  0  0  0  0  0  0  0  0  0
   -4.8085   18.7170   66.8486 C   0  0  0  0  0  0  0  0  0  0  0  0
  -14.3632   14.8799   72.8227 Cl  0  0  0  0  0  0  0  0  0  0  0  0
  1  2  2  0
  1  6  1  0
  1 11  1  0
  2  3  1  0
  3  4  1  0
  3  7  1  0
  4  9  2  0
  4  5  1  0
  5  6  1  0
  5  8  1  0
  6 10  2  0
  8 13  1  0
 11 12  3  0
 16 19  1  0
 17 25  1  0
 13 20  2  0
 20 21  1  0
 21 22  2  0
 22 24  1  0
 24 23  2  0
 23 13  1  0
  7 18  2  0
 18 17  1  0
 17 16  2  0
 16 15  1  0
 15 14  2  0
 14  7  1  0
M  END

$$$$
No_225-gen_results_new/Mpro_initial_molecule_p3/2024-06-19-20-31-25/
     RDKit          3D

 28 30  0  0  0  0  0  0  0  0999 V2000
  -10.3383   15.1532   67.5971 C   0  0  0  0  0  0  0  0  0  0  0  0
  -10.7220   15.1619   68.8301 N   0  0  0  0  0  0  0  0  0  0  0  0
  -10.4044   16.2024   69.6852 N   0  0  0  0  0  0  0  0  0  0  0  0
   -9.7271   17.3221   69.2607 C   0  0  0  0  0  0  0  0  0  0  0  0
   -9.3095   17.3212   67.9557 N   0  0  0  0  0  0  0  0  0  0  0  0
   -9.5450   16.2958   67.0814 C   0  0  0  0  0  0  0  0  0  0  0  0
  -10.8644   16.0907   71.0374 C   0  0  0  0  0  0  0  0  0  0  0  0
   -8.5330   18.4792   67.4604 C   0  0  0  0  0  0  0  0  0  0  0  0
   -9.5433   18.2987   69.9938 O   0  0  0  0  0  0  0  0  0  0  0  0
   -9.1481   16.2876   65.9124 O   0  0  0  0  0  0  0  0  0  0  0  0
  -10.7304   14.0247   66.8209 C   0  0  0  0  0  0  0  0  0  0  0  0
  -11.1003   13.0895   66.2465 N   0  0  0  0  0  0  0  0  0  0  0  0
   -7.0275   18.2876   67.7219 C   0  0  0  0  0  0  0  0  0  0  0  0
  -10.0126   16.3511   72.1395 C   0  0  0  0  0  0  0  0  0  0  0  0
  -10.4883   16.2212   73.4591 C   0  0  0  0  0  0  0  0  0  0  0  0
  -11.8103   15.8022   73.6966 C   0  0  0  0  0  0  0  0  0  0  0  0
  -12.6594   15.5153   72.6113 C   0  0  0  0  0  0  0  0  0  0  0  0
  -12.1896   15.6561   71.2886 C   0  0  0  0  0  0  0  0  0  0  0  0
  -12.2768   15.6000   75.1088 C   0  0  0  0  0  0  0  0  0  0  0  0
   -6.3059   19.3590   66.9154 C   0  0  0  0  0  0  0  0  0  0  0  0
   -6.9578   20.4797   66.4322 C   0  0  0  0  0  0  0  0  0  0  0  0
   -6.1525   21.3253   65.7586 C   0  0  0  0  0  0  0  0  0  0  0  0
   -4.7519   21.2584   65.8433 C   0  0  0  0  0  0  0  0  0  0  0  0
   -4.1291   20.2465   66.5605 C   0  0  0  0  0  0  0  0  0  0  0  0
   -4.8972   19.2318   67.1366 C   0  0  0  0  0  0  0  0  0  0  0  0
  -12.5215   16.2806   75.8677 N   0  0  0  0  0  0  0  0  0  0  0  0
   -3.7743   22.3215   65.2434 C   0  0  0  0  0  0  0  0  0  0  0  0
   -3.7126   22.3403   63.9719 N   0  0  0  0  0  0  0  0  0  0  0  0
  1  2  2  0
  1  6  1  0
  1 11  1  0
  2  3  1  0
  3  4  1  0
  3  7  1  0
  4  9  2  0
  4  5  1  0
  5  6  1  0
  5  8  1  0
  6 10  2  0
  8 13  1  0
 11 12  3  0
 16 19  1  0
 13 20  1  0
 19 26  1  0
 23 27  1  0
 27 28  1  0
 20 21  2  0
 21 22  1  0
 22 23  2  0
 23 24  1  0
 24 25  2  0
 25 20  1  0
  7 18  2  0
 18 17  1  0
 17 16  2  0
 16 15  1  0
 15 14  2  0
 14  7  1  0
M  END

$$$$
No_226-gen_results_new/Mpro_initial_molecule_p3/2024-06-19-20-31-25/
     RDKit          3D

 28 30  0  0  0  0  0  0  0  0999 V2000
  -10.3383   15.1532   67.5971 C   0  0  0  0  0  0  0  0  0  0  0  0
  -10.7220   15.1619   68.8301 N   0  0  0  0  0  0  0  0  0  0  0  0
  -10.4044   16.2024   69.6852 N   0  0  0  0  0  0  0  0  0  0  0  0
   -9.7271   17.3221   69.2607 C   0  0  0  0  0  0  0  0  0  0  0  0
   -9.3095   17.3212   67.9557 N   0  0  0  0  0  0  0  0  0  0  0  0
   -9.5450   16.2958   67.0814 C   0  0  0  0  0  0  0  0  0  0  0  0
  -10.8644   16.0907   71.0374 C   0  0  0  0  0  0  0  0  0  0  0  0
   -8.5330   18.4792   67.4604 C   0  0  0  0  0  0  0  0  0  0  0  0
   -9.5433   18.2987   69.9938 O   0  0  0  0  0  0  0  0  0  0  0  0
   -9.1481   16.2876   65.9124 O   0  0  0  0  0  0  0  0  0  0  0  0
  -10.7304   14.0247   66.8209 C   0  0  0  0  0  0  0  0  0  0  0  0
  -11.1003   13.0895   66.2465 N   0  0  0  0  0  0  0  0  0  0  0  0
   -7.0275   18.2876   67.7219 C   0  0  0  0  0  0  0  0  0  0  0  0
  -10.0126   16.3511   72.1395 C   0  0  0  0  0  0  0  0  0  0  0  0
  -10.4883   16.2212   73.4591 C   0  0  0  0  0  0  0  0  0  0  0  0
  -11.8103   15.8022   73.6966 C   0  0  0  0  0  0  0  0  0  0  0  0
  -12.6594   15.5153   72.6113 C   0  0  0  0  0  0  0  0  0  0  0  0
  -12.1896   15.6561   71.2886 C   0  0  0  0  0  0  0  0  0  0  0  0
  -12.2768   15.6000   75.1088 C   0  0  0  0  0  0  0  0  0  0  0  0
   -6.3059   19.3590   66.9154 C   0  0  0  0  0  0  0  0  0  0  0  0
   -4.9893   19.4432   66.9685 C   0  0  0  0  0  0  0  0  0  0  0  0
   -4.2885   20.4305   66.2887 C   0  0  0  0  0  0  0  0  0  0  0  0
   -4.9684   21.5145   65.8586 C   0  0  0  0  0  0  0  0  0  0  0  0
   -6.3744   21.4842   65.8345 C   0  0  0  0  0  0  0  0  0  0  0  0
   -7.0549   20.4513   66.4027 C   0  0  0  0  0  0  0  0  0  0  0  0
  -12.3532   14.5920   75.5994 O   0  0  0  0  0  0  0  0  0  0  0  0
  -12.2005   16.7293   75.8922 N   0  0  0  0  0  0  0  0  0  0  0  0
   -4.1169   22.6200   65.1758 C   0  0  0  0  0  0  0  0  0  0  0  0
  1  2  2  0
  1  6  1  0
  1 11  1  0
  2  3  1  0
  3  4  1  0
  3  7  1  0
  4  9  2  0
  4  5  1  0
  5  6  1  0
  5  8  1  0
  6 10  2  0
  8 13  1  0
 11 12  3  0
 16 19  1  0
 13 20  1  0
 19 26  2  0
 19 27  1  0
 23 28  1  0
 20 21  2  0
 21 22  1  0
 22 23  2  0
 23 24  1  0
 24 25  2  0
 25 20  1  0
  7 18  2  0
 18 17  1  0
 17 16  2  0
 16 15  1  0
 15 14  2  0
 14  7  1  0
M  END

$$$$
No_227-gen_results_new/Mpro_initial_molecule_p3/2024-06-19-20-31-25/
     RDKit          3D

 28 30  0  0  0  0  0  0  0  0999 V2000
  -10.3383   15.1532   67.5971 C   0  0  0  0  0  0  0  0  0  0  0  0
  -10.7220   15.1619   68.8301 N   0  0  0  0  0  0  0  0  0  0  0  0
  -10.4044   16.2024   69.6852 N   0  0  0  0  0  0  0  0  0  0  0  0
   -9.7271   17.3221   69.2607 C   0  0  0  0  0  0  0  0  0  0  0  0
   -9.3095   17.3212   67.9557 N   0  0  0  0  0  0  0  0  0  0  0  0
   -9.5450   16.2958   67.0814 C   0  0  0  0  0  0  0  0  0  0  0  0
  -10.8644   16.0907   71.0374 C   0  0  0  0  0  0  0  0  0  0  0  0
   -8.5330   18.4792   67.4604 C   0  0  0  0  0  0  0  0  0  0  0  0
   -9.5433   18.2987   69.9938 O   0  0  0  0  0  0  0  0  0  0  0  0
   -9.1481   16.2876   65.9124 O   0  0  0  0  0  0  0  0  0  0  0  0
  -10.7304   14.0247   66.8209 C   0  0  0  0  0  0  0  0  0  0  0  0
  -11.1003   13.0895   66.2465 N   0  0  0  0  0  0  0  0  0  0  0  0
   -7.0275   18.2876   67.7219 C   0  0  0  0  0  0  0  0  0  0  0  0
  -10.0126   16.3511   72.1395 C   0  0  0  0  0  0  0  0  0  0  0  0
  -10.4883   16.2212   73.4591 C   0  0  0  0  0  0  0  0  0  0  0  0
  -11.8103   15.8022   73.6966 C   0  0  0  0  0  0  0  0  0  0  0  0
  -12.6594   15.5153   72.6113 C   0  0  0  0  0  0  0  0  0  0  0  0
  -12.1896   15.6561   71.2886 C   0  0  0  0  0  0  0  0  0  0  0  0
  -12.3486   15.5799   75.3255 Cl  0  0  0  0  0  0  0  0  0  0  0  0
   -6.5558   17.2018   67.9045 O   0  0  0  0  0  0  0  0  0  0  0  0
   -6.4130   19.3147   68.0692 N   0  0  0  0  0  0  0  0  0  0  0  0
   -4.9880   19.3264   68.2155 C   0  0  0  0  0  0  0  0  0  0  0  0
   -4.6408   19.3966   69.5241 C   0  0  0  0  0  0  0  0  0  0  0  0
   -3.1852   19.5131   69.8121 C   0  0  0  0  0  0  0  0  0  0  0  0
   -2.3930   19.7155   68.7418 N   0  0  0  0  0  0  0  0  0  0  0  0
   -4.1089   19.5258   67.2101 C   0  0  0  0  0  0  0  0  0  0  0  0
   -2.7778   19.7144   67.5096 C   0  0  0  0  0  0  0  0  0  0  0  0
   -2.6948   19.6083   71.2103 C   0  0  0  0  0  0  0  0  0  0  0  0
  1  2  2  0
  1  6  1  0
  1 11  1  0
  2  3  1  0
  3  4  1  0
  3  7  1  0
  4  9  2  0
  4  5  1  0
  5  6  1  0
  5  8  1  0
  6 10  2  0
  8 13  1  0
 11 12  3  0
 16 19  1  0
 13 20  2  0
 13 21  1  0
 21 22  1  0
 24 28  1  0
 22 23  2  0
 23 24  1  0
 24 25  2  0
 25 27  1  0
 27 26  2  0
 26 22  1  0
  7 18  2  0
 18 17  1  0
 17 16  2  0
 16 15  1  0
 15 14  2  0
 14  7  1  0
M  END

$$$$
No_228-gen_results_new/Mpro_initial_molecule_p3/2024-06-19-20-31-25/
     RDKit          3D

 28 30  0  0  0  0  0  0  0  0999 V2000
  -10.3383   15.1532   67.5971 C   0  0  0  0  0  0  0  0  0  0  0  0
  -10.7220   15.1619   68.8301 N   0  0  0  0  0  0  0  0  0  0  0  0
  -10.4044   16.2024   69.6852 N   0  0  0  0  0  0  0  0  0  0  0  0
   -9.7271   17.3221   69.2607 C   0  0  0  0  0  0  0  0  0  0  0  0
   -9.3095   17.3212   67.9557 N   0  0  0  0  0  0  0  0  0  0  0  0
   -9.5450   16.2958   67.0814 C   0  0  0  0  0  0  0  0  0  0  0  0
  -10.8644   16.0907   71.0374 C   0  0  0  0  0  0  0  0  0  0  0  0
   -8.5330   18.4792   67.4604 C   0  0  0  0  0  0  0  0  0  0  0  0
   -9.5433   18.2987   69.9938 O   0  0  0  0  0  0  0  0  0  0  0  0
   -9.1481   16.2876   65.9124 O   0  0  0  0  0  0  0  0  0  0  0  0
  -10.7304   14.0247   66.8209 C   0  0  0  0  0  0  0  0  0  0  0  0
  -11.1003   13.0895   66.2465 N   0  0  0  0  0  0  0  0  0  0  0  0
   -7.0275   18.2876   67.7219 C   0  0  0  0  0  0  0  0  0  0  0  0
  -10.0126   16.3511   72.1395 C   0  0  0  0  0  0  0  0  0  0  0  0
  -10.4883   16.2212   73.4591 C   0  0  0  0  0  0  0  0  0  0  0  0
  -11.8103   15.8022   73.6966 C   0  0  0  0  0  0  0  0  0  0  0  0
  -12.6594   15.5153   72.6113 C   0  0  0  0  0  0  0  0  0  0  0  0
  -12.1896   15.6561   71.2886 C   0  0  0  0  0  0  0  0  0  0  0  0
  -12.2484   15.6088   75.0145 O   0  0  0  0  0  0  0  0  0  0  0  0
   -6.5341   17.3731   68.3686 C   0  0  0  0  0  0  0  0  0  0  0  0
   -5.2023   17.6243   68.8089 C   0  0  0  0  0  0  0  0  0  0  0  0
   -4.3958   18.3714   68.1904 C   0  0  0  0  0  0  0  0  0  0  0  0
   -4.9307   19.3253   67.3291 C   0  0  0  0  0  0  0  0  0  0  0  0
   -6.2858   19.2676   67.0130 C   0  0  0  0  0  0  0  0  0  0  0  0
  -11.8772   16.5247   75.9060 C   0  0  0  0  0  0  0  0  0  0  0  0
   -6.8334   20.2900   66.2275 O   0  0  0  0  0  0  0  0  0  0  0  0
   -4.1002   20.2927   66.7423 N   0  0  0  0  0  0  0  0  0  0  0  0
   -4.0893   21.4970   66.9480 C   0  0  0  0  0  0  0  0  0  0  0  0
  1  2  2  0
  1  6  1  0
  1 11  1  0
  2  3  1  0
  3  4  1  0
  3  7  1  0
  4  9  2  0
  4  5  1  0
  5  6  1  0
  5  8  1  0
  6 10  2  0
  8 13  1  0
 11 12  3  0
 16 19  1  0
 19 25  1  0
 24 26  1  0
 23 27  1  0
 27 28  1  0
 13 20  2  0
 20 21  1  0
 21 22  2  0
 22 23  1  0
 23 24  2  0
 24 13  1  0
  7 18  2  0
 18 17  1  0
 17 16  2  0
 16 15  1  0
 15 14  2  0
 14  7  1  0
M  END

$$$$
No_229-gen_results_new/Mpro_initial_molecule_p3/2024-06-19-20-31-25/
     RDKit          3D

 28 30  0  0  0  0  0  0  0  0999 V2000
  -10.3383   15.1532   67.5971 C   0  0  0  0  0  0  0  0  0  0  0  0
  -10.7220   15.1619   68.8301 N   0  0  0  0  0  0  0  0  0  0  0  0
  -10.4044   16.2024   69.6852 N   0  0  0  0  0  0  0  0  0  0  0  0
   -9.7271   17.3221   69.2607 C   0  0  0  0  0  0  0  0  0  0  0  0
   -9.3095   17.3212   67.9557 N   0  0  0  0  0  0  0  0  0  0  0  0
   -9.5450   16.2958   67.0814 C   0  0  0  0  0  0  0  0  0  0  0  0
  -10.8644   16.0907   71.0374 C   0  0  0  0  0  0  0  0  0  0  0  0
   -8.5330   18.4792   67.4604 C   0  0  0  0  0  0  0  0  0  0  0  0
   -9.5433   18.2987   69.9938 O   0  0  0  0  0  0  0  0  0  0  0  0
   -9.1481   16.2876   65.9124 O   0  0  0  0  0  0  0  0  0  0  0  0
  -10.7304   14.0247   66.8209 C   0  0  0  0  0  0  0  0  0  0  0  0
  -11.1003   13.0895   66.2465 N   0  0  0  0  0  0  0  0  0  0  0  0
   -7.0275   18.2876   67.7219 C   0  0  0  0  0  0  0  0  0  0  0  0
  -10.0126   16.3511   72.1395 C   0  0  0  0  0  0  0  0  0  0  0  0
  -10.4883   16.2212   73.4591 C   0  0  0  0  0  0  0  0  0  0  0  0
  -11.8103   15.8022   73.6966 C   0  0  0  0  0  0  0  0  0  0  0  0
  -12.6594   15.5153   72.6113 C   0  0  0  0  0  0  0  0  0  0  0  0
  -12.1896   15.6561   71.2886 C   0  0  0  0  0  0  0  0  0  0  0  0
  -12.3486   15.5799   75.3255 Cl  0  0  0  0  0  0  0  0  0  0  0  0
   -6.4523   19.3079   67.8835 C   0  0  0  0  0  0  0  0  0  0  0  0
   -6.2032   19.5449   69.0280 C   0  0  0  0  0  0  0  0  0  0  0  0
   -5.0283   20.3340   69.5330 C   0  0  0  0  0  0  0  0  0  0  0  0
   -4.0927   20.0899   68.5616 C   0  0  0  0  0  0  0  0  0  0  0  0
   -4.0674   19.9577   67.2892 C   0  0  0  0  0  0  0  0  0  0  0  0
   -5.2619   19.2411   66.9215 C   0  0  0  0  0  0  0  0  0  0  0  0
   -2.8149   21.0251   68.9273 O   0  0  0  0  0  0  0  0  0  0  0  0
   -2.9906   20.2650   66.3331 C   0  0  0  0  0  0  0  0  0  0  0  0
   -3.2297   21.3276   65.5081 C   0  0  0  0  0  0  0  0  0  0  0  0
  1  2  2  0
  1  6  1  0
  1 11  1  0
  2  3  1  0
  3  4  1  0
  3  7  1  0
  4  9  2  0
  4  5  1  0
  5  6  1  0
  5  8  1  0
  6 10  2  0
  8 13  1  0
 11 12  3  0
 16 19  1  0
 13 20  1  0
 23 26  1  0
 24 27  1  0
 27 28  1  0
 20 21  2  0
 21 22  1  0
 22 23  2  0
 23 24  1  0
 24 25  2  0
 25 20  1  0
  7 18  2  0
 18 17  1  0
 17 16  2  0
 16 15  1  0
 15 14  2  0
 14  7  1  0
M  END

$$$$
No_230-gen_results_new/Mpro_initial_molecule_p3/2024-06-19-20-31-25/
     RDKit          3D

 28 30  0  0  0  0  0  0  0  0999 V2000
  -10.3383   15.1532   67.5971 C   0  0  0  0  0  0  0  0  0  0  0  0
  -10.7220   15.1619   68.8301 N   0  0  0  0  0  0  0  0  0  0  0  0
  -10.4044   16.2024   69.6852 N   0  0  0  0  0  0  0  0  0  0  0  0
   -9.7271   17.3221   69.2607 C   0  0  0  0  0  0  0  0  0  0  0  0
   -9.3095   17.3212   67.9557 N   0  0  0  0  0  0  0  0  0  0  0  0
   -9.5450   16.2958   67.0814 C   0  0  0  0  0  0  0  0  0  0  0  0
  -10.8644   16.0907   71.0374 C   0  0  0  0  0  0  0  0  0  0  0  0
   -8.5330   18.4792   67.4604 C   0  0  0  0  0  0  0  0  0  0  0  0
   -9.5433   18.2987   69.9938 O   0  0  0  0  0  0  0  0  0  0  0  0
   -9.1481   16.2876   65.9124 O   0  0  0  0  0  0  0  0  0  0  0  0
  -10.7304   14.0247   66.8209 C   0  0  0  0  0  0  0  0  0  0  0  0
  -11.1003   13.0895   66.2465 N   0  0  0  0  0  0  0  0  0  0  0  0
   -7.0275   18.2876   67.7219 C   0  0  0  0  0  0  0  0  0  0  0  0
  -10.0126   16.3511   72.1395 C   0  0  0  0  0  0  0  0  0  0  0  0
  -10.4883   16.2212   73.4591 C   0  0  0  0  0  0  0  0  0  0  0  0
  -11.8103   15.8022   73.6966 C   0  0  0  0  0  0  0  0  0  0  0  0
  -12.6594   15.5153   72.6113 C   0  0  0  0  0  0  0  0  0  0  0  0
  -12.1896   15.6561   71.2886 C   0  0  0  0  0  0  0  0  0  0  0  0
  -12.3486   15.5799   75.3255 Cl  0  0  0  0  0  0  0  0  0  0  0  0
   -6.4523   19.3079   67.8835 C   0  0  0  0  0  0  0  0  0  0  0  0
   -4.9674   19.3665   67.8795 C   0  0  0  0  0  0  0  0  0  0  0  0
   -4.2474   20.6429   68.0405 C   0  0  0  0  0  0  0  0  0  0  0  0
   -3.2801   20.4329   69.1959 C   0  0  0  0  0  0  0  0  0  0  0  0
   -2.7373   19.1759   69.5046 C   0  0  0  0  0  0  0  0  0  0  0  0
   -3.2838   18.1797   69.3177 C   0  0  0  0  0  0  0  0  0  0  0  0
   -4.5627   18.1006   68.5733 C   0  0  0  0  0  0  0  0  0  0  0  0
   -4.5966   21.5259   67.3758 O   0  0  0  0  0  0  0  0  0  0  0  0
   -5.2297   21.2890   66.0384 C   0  0  0  0  0  0  0  0  0  0  0  0
  1  2  2  0
  1  6  1  0
  1 11  1  0
  2  3  1  0
  3  4  1  0
  3  7  1  0
  4  9  2  0
  4  5  1  0
  5  6  1  0
  5  8  1  0
  6 10  2  0
  8 13  1  0
 11 12  3  0
 16 19  1  0
 13 20  1  0
 20 21  1  0
 22 27  1  0
 27 28  1  0
  7 18  2  0
 18 17  1  0
 17 16  2  0
 16 15  1  0
 15 14  2  0
 14  7  1  0
 21 22  2  0
 22 23  1  0
 23 24  2  0
 24 25  1  0
 25 26  2  0
 26 21  1  0
M  END

$$$$
No_231-gen_results_new/Mpro_initial_molecule_p3/2024-06-19-20-31-25/
     RDKit          3D

 28 29  0  0  0  0  0  0  0  0999 V2000
  -10.3383   15.1532   67.5971 C   0  0  0  0  0  0  0  0  0  0  0  0
  -10.7220   15.1619   68.8301 N   0  0  0  0  0  0  0  0  0  0  0  0
  -10.4044   16.2024   69.6852 N   0  0  0  0  0  0  0  0  0  0  0  0
   -9.7271   17.3221   69.2607 C   0  0  0  0  0  0  0  0  0  0  0  0
   -9.3095   17.3212   67.9557 N   0  0  0  0  0  0  0  0  0  0  0  0
   -9.5450   16.2958   67.0814 C   0  0  0  0  0  0  0  0  0  0  0  0
  -10.8644   16.0907   71.0374 C   0  0  0  0  0  0  0  0  0  0  0  0
   -8.5330   18.4792   67.4604 C   0  0  0  0  0  0  0  0  0  0  0  0
   -9.5433   18.2987   69.9938 O   0  0  0  0  0  0  0  0  0  0  0  0
   -9.1481   16.2876   65.9124 O   0  0  0  0  0  0  0  0  0  0  0  0
  -10.7304   14.0247   66.8209 C   0  0  0  0  0  0  0  0  0  0  0  0
  -11.1003   13.0895   66.2465 N   0  0  0  0  0  0  0  0  0  0  0  0
   -7.0275   18.2876   67.7219 C   0  0  0  0  0  0  0  0  0  0  0  0
  -10.0126   16.3511   72.1395 C   0  0  0  0  0  0  0  0  0  0  0  0
  -10.4883   16.2212   73.4591 C   0  0  0  0  0  0  0  0  0  0  0  0
  -11.8103   15.8022   73.6966 C   0  0  0  0  0  0  0  0  0  0  0  0
  -12.6594   15.5153   72.6113 C   0  0  0  0  0  0  0  0  0  0  0  0
  -12.1896   15.6561   71.2886 C   0  0  0  0  0  0  0  0  0  0  0  0
  -12.2768   15.6000   75.1088 C   0  0  0  0  0  0  0  0  0  0  0  0
   -6.4522   19.3092   67.8826 C   0  0  0  0  0  0  0  0  0  0  0  0
  -12.3537   14.5923   75.5994 O   0  0  0  0  0  0  0  0  0  0  0  0
  -12.8117   16.6654   75.6562 O   0  0  0  0  0  0  0  0  0  0  0  0
   -4.9616   19.3660   67.8952 C   0  0  0  0  0  0  0  0  0  0  0  0
   -4.2444   20.6404   68.0469 C   0  0  0  0  0  0  0  0  0  0  0  0
   -3.5728   21.1028   67.0380 C   0  0  0  0  0  0  0  0  0  0  0  0
   -4.1294   21.7931   66.2139 N   0  0  0  0  0  0  0  0  0  0  0  0
   -2.3001   21.1790   67.0470 O   0  0  0  0  0  0  0  0  0  0  0  0
   -3.4424   22.4062   65.0114 C   0  0  0  0  0  0  0  0  0  0  0  0
  1  2  2  0
  1  6  1  0
  1 11  1  0
  2  3  1  0
  3  4  1  0
  3  7  1  0
  4  9  2  0
  4  5  1  0
  5  6  1  0
  5  8  1  0
  6 10  2  0
  8 13  1  0
 11 12  3  0
 16 19  1  0
 13 20  1  0
 19 21  2  0
 19 22  1  0
 20 23  1  0
 23 24  1  0
 24 25  1  0
 25 26  1  0
 25 27  2  0
 26 28  1  0
  7 18  2  0
 18 17  1  0
 17 16  2  0
 16 15  1  0
 15 14  2  0
 14  7  1  0
M  END

$$$$
No_232-gen_results_new/Mpro_initial_molecule_p3/2024-06-19-20-31-25/
     RDKit          3D

 28 30  0  0  0  0  0  0  0  0999 V2000
  -10.3383   15.1532   67.5971 C   0  0  0  0  0  0  0  0  0  0  0  0
  -10.7220   15.1619   68.8301 N   0  0  0  0  0  0  0  0  0  0  0  0
  -10.4044   16.2024   69.6852 N   0  0  0  0  0  0  0  0  0  0  0  0
   -9.7271   17.3221   69.2607 C   0  0  0  0  0  0  0  0  0  0  0  0
   -9.3095   17.3212   67.9557 N   0  0  0  0  0  0  0  0  0  0  0  0
   -9.5450   16.2958   67.0814 C   0  0  0  0  0  0  0  0  0  0  0  0
  -10.8644   16.0907   71.0374 C   0  0  0  0  0  0  0  0  0  0  0  0
   -8.5330   18.4792   67.4604 C   0  0  0  0  0  0  0  0  0  0  0  0
   -9.5433   18.2987   69.9938 O   0  0  0  0  0  0  0  0  0  0  0  0
   -9.1481   16.2876   65.9124 O   0  0  0  0  0  0  0  0  0  0  0  0
  -10.7304   14.0247   66.8209 C   0  0  0  0  0  0  0  0  0  0  0  0
  -11.1003   13.0895   66.2465 N   0  0  0  0  0  0  0  0  0  0  0  0
   -7.0275   18.2876   67.7219 C   0  0  0  0  0  0  0  0  0  0  0  0
  -10.0126   16.3511   72.1395 C   0  0  0  0  0  0  0  0  0  0  0  0
  -10.4883   16.2212   73.4591 C   0  0  0  0  0  0  0  0  0  0  0  0
  -11.8103   15.8022   73.6966 C   0  0  0  0  0  0  0  0  0  0  0  0
  -12.6594   15.5153   72.6113 C   0  0  0  0  0  0  0  0  0  0  0  0
  -12.1896   15.6561   71.2886 C   0  0  0  0  0  0  0  0  0  0  0  0
  -12.2768   15.6000   75.1088 C   0  0  0  0  0  0  0  0  0  0  0  0
   -6.5341   17.3729   68.3685 C   0  0  0  0  0  0  0  0  0  0  0  0
   -5.1308   17.1882   68.5568 C   0  0  0  0  0  0  0  0  0  0  0  0
   -6.2282   19.1886   66.9092 C   0  0  0  0  0  0  0  0  0  0  0  0
   -4.8273   19.0035   67.0391 C   0  0  0  0  0  0  0  0  0  0  0  0
   -4.3060   18.0195   67.7979 C   0  0  0  0  0  0  0  0  0  0  0  0
  -11.9765   16.5258   75.8854 N   0  0  0  0  0  0  0  0  0  0  0  0
  -12.6501   14.5275   75.4118 O   0  0  0  0  0  0  0  0  0  0  0  0
   -6.7604   20.1930   66.1161 O   0  0  0  0  0  0  0  0  0  0  0  0
   -4.5739   16.0782   69.4223 C   0  0  0  0  0  0  0  0  0  0  0  0
  1  2  2  0
  1  6  1  0
  1 11  1  0
  2  3  1  0
  3  4  1  0
  3  7  1  0
  4  9  2  0
  4  5  1  0
  5  6  1  0
  5  8  1  0
  6 10  2  0
  8 13  1  0
 11 12  3  0
 16 19  1  0
 19 25  1  0
 19 26  2  0
 22 27  1  0
 21 28  1  0
 13 20  2  0
 20 21  1  0
 21 24  2  0
 24 23  1  0
 23 22  2  0
 22 13  1  0
  7 18  2  0
 18 17  1  0
 17 16  2  0
 16 15  1  0
 15 14  2  0
 14  7  1  0
M  END

$$$$
No_233-gen_results_new/Mpro_initial_molecule_p3/2024-06-19-20-31-25/
     RDKit          3D

 28 30  0  0  0  0  0  0  0  0999 V2000
  -10.3383   15.1532   67.5971 C   0  0  0  0  0  0  0  0  0  0  0  0
  -10.7220   15.1619   68.8301 N   0  0  0  0  0  0  0  0  0  0  0  0
  -10.4044   16.2024   69.6852 N   0  0  0  0  0  0  0  0  0  0  0  0
   -9.7271   17.3221   69.2607 C   0  0  0  0  0  0  0  0  0  0  0  0
   -9.3095   17.3212   67.9557 N   0  0  0  0  0  0  0  0  0  0  0  0
   -9.5450   16.2958   67.0814 C   0  0  0  0  0  0  0  0  0  0  0  0
  -10.8644   16.0907   71.0374 C   0  0  0  0  0  0  0  0  0  0  0  0
   -8.5330   18.4792   67.4604 C   0  0  0  0  0  0  0  0  0  0  0  0
   -9.5433   18.2987   69.9938 O   0  0  0  0  0  0  0  0  0  0  0  0
   -9.1481   16.2876   65.9124 O   0  0  0  0  0  0  0  0  0  0  0  0
  -10.7304   14.0247   66.8209 C   0  0  0  0  0  0  0  0  0  0  0  0
  -11.1003   13.0895   66.2465 N   0  0  0  0  0  0  0  0  0  0  0  0
   -7.0275   18.2876   67.7219 C   0  0  0  0  0  0  0  0  0  0  0  0
  -10.0126   16.3511   72.1395 C   0  0  0  0  0  0  0  0  0  0  0  0
  -10.4883   16.2212   73.4591 C   0  0  0  0  0  0  0  0  0  0  0  0
  -11.8103   15.8022   73.6966 C   0  0  0  0  0  0  0  0  0  0  0  0
  -12.6594   15.5153   72.6113 C   0  0  0  0  0  0  0  0  0  0  0  0
  -12.1896   15.6561   71.2886 C   0  0  0  0  0  0  0  0  0  0  0  0
  -12.3486   15.5799   75.3255 Cl  0  0  0  0  0  0  0  0  0  0  0  0
   -6.3058   19.3592   66.9157 C   0  0  0  0  0  0  0  0  0  0  0  0
   -4.9894   19.4432   66.9687 C   0  0  0  0  0  0  0  0  0  0  0  0
   -4.2710   18.3392   67.6547 C   0  0  0  0  0  0  0  0  0  0  0  0
   -5.0430   17.2550   68.3049 C   0  0  0  0  0  0  0  0  0  0  0  0
   -6.4241   17.2326   68.1847 C   0  0  0  0  0  0  0  0  0  0  0  0
   -4.2029   20.4288   66.3810 C   0  0  0  0  0  0  0  0  0  0  0  0
   -3.0584   20.6159   66.8086 O   0  0  0  0  0  0  0  0  0  0  0  0
   -4.7653   21.4393   65.6693 N   0  0  0  0  0  0  0  0  0  0  0  0
  -14.0263   14.9556   72.6450 N   0  0  0  0  0  0  0  0  0  0  0  0
  1  2  2  0
  1  6  1  0
  1 11  1  0
  2  3  1  0
  3  4  1  0
  3  7  1  0
  4  9  2  0
  4  5  1  0
  5  6  1  0
  5  8  1  0
  6 10  2  0
  8 13  1  0
 11 12  3  0
 16 19  1  0
 21 25  1  0
 25 26  2  0
 25 27  1  0
 17 28  1  0
 13 20  2  0
 20 21  1  0
 21 22  2  0
 22 23  1  0
 23 24  2  0
 24 13  1  0
  7 18  2  0
 18 17  1  0
 17 16  2  0
 16 15  1  0
 15 14  2  0
 14  7  1  0
M  END

$$$$
No_234-gen_results_new/Mpro_initial_molecule_p3/2024-06-19-20-31-25/
     RDKit          3D

 27 29  0  0  0  0  0  0  0  0999 V2000
  -10.3383   15.1532   67.5971 C   0  0  0  0  0  0  0  0  0  0  0  0
  -10.7220   15.1619   68.8301 N   0  0  0  0  0  0  0  0  0  0  0  0
  -10.4044   16.2024   69.6852 N   0  0  0  0  0  0  0  0  0  0  0  0
   -9.7271   17.3221   69.2607 C   0  0  0  0  0  0  0  0  0  0  0  0
   -9.3095   17.3212   67.9557 N   0  0  0  0  0  0  0  0  0  0  0  0
   -9.5450   16.2958   67.0814 C   0  0  0  0  0  0  0  0  0  0  0  0
  -10.8644   16.0907   71.0374 C   0  0  0  0  0  0  0  0  0  0  0  0
   -8.5330   18.4792   67.4604 C   0  0  0  0  0  0  0  0  0  0  0  0
   -9.5433   18.2987   69.9938 O   0  0  0  0  0  0  0  0  0  0  0  0
   -9.1481   16.2876   65.9124 O   0  0  0  0  0  0  0  0  0  0  0  0
  -10.7304   14.0247   66.8209 C   0  0  0  0  0  0  0  0  0  0  0  0
  -11.1003   13.0895   66.2465 N   0  0  0  0  0  0  0  0  0  0  0  0
   -7.0275   18.2876   67.7219 C   0  0  0  0  0  0  0  0  0  0  0  0
  -10.0126   16.3511   72.1395 C   0  0  0  0  0  0  0  0  0  0  0  0
  -10.4883   16.2212   73.4591 C   0  0  0  0  0  0  0  0  0  0  0  0
  -11.8103   15.8022   73.6966 C   0  0  0  0  0  0  0  0  0  0  0  0
  -12.6594   15.5153   72.6113 C   0  0  0  0  0  0  0  0  0  0  0  0
  -12.1896   15.6561   71.2886 C   0  0  0  0  0  0  0  0  0  0  0  0
  -12.3486   15.5799   75.3255 Cl  0  0  0  0  0  0  0  0  0  0  0  0
   -6.4523   19.3079   67.8835 C   0  0  0  0  0  0  0  0  0  0  0  0
   -4.9674   19.3665   67.8795 C   0  0  0  0  0  0  0  0  0  0  0  0
   -4.2474   20.6429   68.0405 C   0  0  0  0  0  0  0  0  0  0  0  0
   -3.2801   20.4329   69.1959 C   0  0  0  0  0  0  0  0  0  0  0  0
   -2.7373   19.1759   69.5046 C   0  0  0  0  0  0  0  0  0  0  0  0
   -3.4947   17.9719   69.4564 C   0  0  0  0  0  0  0  0  0  0  0  0
   -4.6081   18.0069   68.9249 C   0  0  0  0  0  0  0  0  0  0  0  0
   -4.9177   21.5963   67.8587 O   0  0  0  0  0  0  0  0  0  0  0  0
  1  2  2  0
  1  6  1  0
  1 11  1  0
  2  3  1  0
  3  4  1  0
  3  7  1  0
  4  9  2  0
  4  5  1  0
  5  6  1  0
  5  8  1  0
  6 10  2  0
  8 13  1  0
 11 12  3  0
 16 19  1  0
 13 20  1  0
 20 21  1  0
 22 27  1  0
  7 18  2  0
 18 17  1  0
 17 16  2  0
 16 15  1  0
 15 14  2  0
 14  7  1  0
 21 22  2  0
 22 23  1  0
 23 24  2  0
 24 25  1  0
 25 26  2  0
 26 21  1  0
M  END

$$$$
No_235-gen_results_new/Mpro_initial_molecule_p3/2024-06-19-20-31-25/
     RDKit          3D

 28 30  0  0  0  0  0  0  0  0999 V2000
  -10.3383   15.1532   67.5971 C   0  0  0  0  0  0  0  0  0  0  0  0
  -10.7220   15.1619   68.8301 N   0  0  0  0  0  0  0  0  0  0  0  0
  -10.4044   16.2024   69.6852 N   0  0  0  0  0  0  0  0  0  0  0  0
   -9.7271   17.3221   69.2607 C   0  0  0  0  0  0  0  0  0  0  0  0
   -9.3095   17.3212   67.9557 N   0  0  0  0  0  0  0  0  0  0  0  0
   -9.5450   16.2958   67.0814 C   0  0  0  0  0  0  0  0  0  0  0  0
  -10.8644   16.0907   71.0374 C   0  0  0  0  0  0  0  0  0  0  0  0
   -8.5330   18.4792   67.4604 C   0  0  0  0  0  0  0  0  0  0  0  0
   -9.5433   18.2987   69.9938 O   0  0  0  0  0  0  0  0  0  0  0  0
   -9.1481   16.2876   65.9124 O   0  0  0  0  0  0  0  0  0  0  0  0
  -10.7304   14.0247   66.8209 C   0  0  0  0  0  0  0  0  0  0  0  0
  -11.1003   13.0895   66.2465 N   0  0  0  0  0  0  0  0  0  0  0  0
   -7.0275   18.2876   67.7219 C   0  0  0  0  0  0  0  0  0  0  0  0
  -10.0126   16.3511   72.1395 C   0  0  0  0  0  0  0  0  0  0  0  0
  -10.4883   16.2212   73.4591 C   0  0  0  0  0  0  0  0  0  0  0  0
  -11.8103   15.8022   73.6966 C   0  0  0  0  0  0  0  0  0  0  0  0
  -12.6594   15.5153   72.6113 C   0  0  0  0  0  0  0  0  0  0  0  0
  -12.1896   15.6561   71.2886 C   0  0  0  0  0  0  0  0  0  0  0  0
  -12.3486   15.5799   75.3255 Cl  0  0  0  0  0  0  0  0  0  0  0  0
   -6.3058   19.3592   66.9157 C   0  0  0  0  0  0  0  0  0  0  0  0
   -4.9894   19.4432   66.9687 C   0  0  0  0  0  0  0  0  0  0  0  0
   -4.2710   18.3392   67.6547 C   0  0  0  0  0  0  0  0  0  0  0  0
   -5.0430   17.2550   68.3049 C   0  0  0  0  0  0  0  0  0  0  0  0
   -6.4241   17.2326   68.1847 C   0  0  0  0  0  0  0  0  0  0  0  0
   -4.2615   20.3558   66.4194 N   0  0  0  0  0  0  0  0  0  0  0  0
   -4.6268   21.5546   66.2431 C   0  0  0  0  0  0  0  0  0  0  0  0
   -4.1301   22.0925   64.9865 C   0  0  0  0  0  0  0  0  0  0  0  0
   -3.0353   21.2999   64.7360 N   0  0  0  0  0  0  0  0  0  0  0  0
  1  2  2  0
  1  6  1  0
  1 11  1  0
  2  3  1  0
  3  4  1  0
  3  7  1  0
  4  9  2  0
  4  5  1  0
  5  6  1  0
  5  8  1  0
  6 10  2  0
  8 13  1  0
 11 12  3  0
 16 19  1  0
 21 25  1  0
 25 26  1  0
 26 27  1  0
 27 28  1  0
 13 20  2  0
 20 21  1  0
 21 22  2  0
 22 23  1  0
 23 24  2  0
 24 13  1  0
  7 18  2  0
 18 17  1  0
 17 16  2  0
 16 15  1  0
 15 14  2  0
 14  7  1  0
M  END

$$$$
No_236-gen_results_new/Mpro_initial_molecule_p3/2024-06-19-20-31-25/
     RDKit          3D

 28 30  0  0  0  0  0  0  0  0999 V2000
  -10.3383   15.1532   67.5971 C   0  0  0  0  0  0  0  0  0  0  0  0
  -10.7220   15.1619   68.8301 N   0  0  0  0  0  0  0  0  0  0  0  0
  -10.4044   16.2024   69.6852 N   0  0  0  0  0  0  0  0  0  0  0  0
   -9.7271   17.3221   69.2607 C   0  0  0  0  0  0  0  0  0  0  0  0
   -9.3095   17.3212   67.9557 N   0  0  0  0  0  0  0  0  0  0  0  0
   -9.5450   16.2958   67.0814 C   0  0  0  0  0  0  0  0  0  0  0  0
  -10.8644   16.0907   71.0374 C   0  0  0  0  0  0  0  0  0  0  0  0
   -8.5330   18.4792   67.4604 C   0  0  0  0  0  0  0  0  0  0  0  0
   -9.5433   18.2987   69.9938 O   0  0  0  0  0  0  0  0  0  0  0  0
   -9.1481   16.2876   65.9124 O   0  0  0  0  0  0  0  0  0  0  0  0
  -10.7304   14.0247   66.8209 C   0  0  0  0  0  0  0  0  0  0  0  0
  -11.1003   13.0895   66.2465 N   0  0  0  0  0  0  0  0  0  0  0  0
   -7.0275   18.2876   67.7219 C   0  0  0  0  0  0  0  0  0  0  0  0
  -10.0126   16.3511   72.1395 C   0  0  0  0  0  0  0  0  0  0  0  0
  -10.4883   16.2212   73.4591 C   0  0  0  0  0  0  0  0  0  0  0  0
  -11.8103   15.8022   73.6966 C   0  0  0  0  0  0  0  0  0  0  0  0
  -12.6594   15.5153   72.6113 C   0  0  0  0  0  0  0  0  0  0  0  0
  -12.1896   15.6561   71.2886 C   0  0  0  0  0  0  0  0  0  0  0  0
  -12.2484   15.6088   75.0145 O   0  0  0  0  0  0  0  0  0  0  0  0
   -6.5557   17.2016   67.9039 O   0  0  0  0  0  0  0  0  0  0  0  0
   -6.3089   19.3657   67.4559 N   0  0  0  0  0  0  0  0  0  0  0  0
   -4.9194   19.4056   67.5523 C   0  0  0  0  0  0  0  0  0  0  0  0
   -4.4066   19.6661   68.7677 C   0  0  0  0  0  0  0  0  0  0  0  0
   -2.9318   19.7087   68.8069 C   0  0  0  0  0  0  0  0  0  0  0  0
   -2.2019   19.6952   67.7010 C   0  0  0  0  0  0  0  0  0  0  0  0
   -2.8147   19.5765   66.4235 C   0  0  0  0  0  0  0  0  0  0  0  0
   -4.2111   19.4306   66.3665 C   0  0  0  0  0  0  0  0  0  0  0  0
   -5.1486   19.7440   70.0640 C   0  0  0  0  0  0  0  0  0  0  0  0
  1  2  2  0
  1  6  1  0
  1 11  1  0
  2  3  1  0
  3  4  1  0
  3  7  1  0
  4  9  2  0
  4  5  1  0
  5  6  1  0
  5  8  1  0
  6 10  2  0
  8 13  1  0
 11 12  3  0
 16 19  1  0
 13 20  2  0
 13 21  1  0
 21 22  1  0
 23 28  1  0
 22 23  2  0
 23 24  1  0
 24 25  2  0
 25 26  1  0
 26 27  2  0
 27 22  1  0
  7 18  2  0
 18 17  1  0
 17 16  2  0
 16 15  1  0
 15 14  2  0
 14  7  1  0
M  END

$$$$
No_237-gen_results_new/Mpro_initial_molecule_p3/2024-06-19-20-31-25/
     RDKit          3D

 28 30  0  0  0  0  0  0  0  0999 V2000
  -10.3383   15.1532   67.5971 C   0  0  0  0  0  0  0  0  0  0  0  0
  -10.7220   15.1619   68.8301 N   0  0  0  0  0  0  0  0  0  0  0  0
  -10.4044   16.2024   69.6852 N   0  0  0  0  0  0  0  0  0  0  0  0
   -9.7271   17.3221   69.2607 C   0  0  0  0  0  0  0  0  0  0  0  0
   -9.3095   17.3212   67.9557 N   0  0  0  0  0  0  0  0  0  0  0  0
   -9.5450   16.2958   67.0814 C   0  0  0  0  0  0  0  0  0  0  0  0
  -10.8644   16.0907   71.0374 C   0  0  0  0  0  0  0  0  0  0  0  0
   -8.5330   18.4792   67.4604 C   0  0  0  0  0  0  0  0  0  0  0  0
   -9.5433   18.2987   69.9938 O   0  0  0  0  0  0  0  0  0  0  0  0
   -9.1481   16.2876   65.9124 O   0  0  0  0  0  0  0  0  0  0  0  0
  -10.7304   14.0247   66.8209 C   0  0  0  0  0  0  0  0  0  0  0  0
  -11.1003   13.0895   66.2465 N   0  0  0  0  0  0  0  0  0  0  0  0
   -7.0275   18.2876   67.7219 C   0  0  0  0  0  0  0  0  0  0  0  0
  -10.0126   16.3511   72.1395 C   0  0  0  0  0  0  0  0  0  0  0  0
  -10.4883   16.2212   73.4591 C   0  0  0  0  0  0  0  0  0  0  0  0
  -11.8103   15.8022   73.6966 C   0  0  0  0  0  0  0  0  0  0  0  0
  -12.6594   15.5153   72.6113 C   0  0  0  0  0  0  0  0  0  0  0  0
  -12.1896   15.6561   71.2886 C   0  0  0  0  0  0  0  0  0  0  0  0
  -12.2768   15.6000   75.1088 C   0  0  0  0  0  0  0  0  0  0  0  0
   -6.5341   17.3729   68.3685 C   0  0  0  0  0  0  0  0  0  0  0  0
   -5.1249   17.1827   68.5818 C   0  0  0  0  0  0  0  0  0  0  0  0
   -4.2977   17.9486   67.7745 C   0  0  0  0  0  0  0  0  0  0  0  0
   -4.8006   18.9009   66.9638 C   0  0  0  0  0  0  0  0  0  0  0  0
   -6.2307   19.0376   66.8866 C   0  0  0  0  0  0  0  0  0  0  0  0
  -12.3528   14.5928   75.5997 O   0  0  0  0  0  0  0  0  0  0  0  0
  -12.4212   16.7487   75.8004 N   0  0  0  0  0  0  0  0  0  0  0  0
  -14.3057   14.8841   72.8627 Cl  0  0  0  0  0  0  0  0  0  0  0  0
   -2.9111   17.7798   67.8462 O   0  0  0  0  0  0  0  0  0  0  0  0
  1  2  2  0
  1  6  1  0
  1 11  1  0
  2  3  1  0
  3  4  1  0
  3  7  1  0
  4  9  2  0
  4  5  1  0
  5  6  1  0
  5  8  1  0
  6 10  2  0
  8 13  1  0
 11 12  3  0
 16 19  1  0
 19 25  2  0
 19 26  1  0
 17 27  1  0
 22 28  1  0
 13 20  2  0
 20 21  1  0
 21 22  2  0
 22 23  1  0
 23 24  2  0
 24 13  1  0
  7 18  2  0
 18 17  1  0
 17 16  2  0
 16 15  1  0
 15 14  2  0
 14  7  1  0
M  END

$$$$
No_238-gen_results_new/Mpro_initial_molecule_p3/2024-06-19-20-31-25/
     RDKit          3D

 28 30  0  0  0  0  0  0  0  0999 V2000
  -10.3383   15.1532   67.5971 C   0  0  0  0  0  0  0  0  0  0  0  0
  -10.7220   15.1619   68.8301 N   0  0  0  0  0  0  0  0  0  0  0  0
  -10.4044   16.2024   69.6852 N   0  0  0  0  0  0  0  0  0  0  0  0
   -9.7271   17.3221   69.2607 C   0  0  0  0  0  0  0  0  0  0  0  0
   -9.3095   17.3212   67.9557 N   0  0  0  0  0  0  0  0  0  0  0  0
   -9.5450   16.2958   67.0814 C   0  0  0  0  0  0  0  0  0  0  0  0
  -10.8644   16.0907   71.0374 C   0  0  0  0  0  0  0  0  0  0  0  0
   -8.5330   18.4792   67.4604 C   0  0  0  0  0  0  0  0  0  0  0  0
   -9.5433   18.2987   69.9938 O   0  0  0  0  0  0  0  0  0  0  0  0
   -9.1481   16.2876   65.9124 O   0  0  0  0  0  0  0  0  0  0  0  0
  -10.7304   14.0247   66.8209 C   0  0  0  0  0  0  0  0  0  0  0  0
  -11.1003   13.0895   66.2465 N   0  0  0  0  0  0  0  0  0  0  0  0
   -7.0275   18.2876   67.7219 C   0  0  0  0  0  0  0  0  0  0  0  0
  -10.0126   16.3511   72.1395 C   0  0  0  0  0  0  0  0  0  0  0  0
  -10.4883   16.2212   73.4591 C   0  0  0  0  0  0  0  0  0  0  0  0
  -11.8103   15.8022   73.6966 C   0  0  0  0  0  0  0  0  0  0  0  0
  -12.6594   15.5153   72.6113 C   0  0  0  0  0  0  0  0  0  0  0  0
  -12.1896   15.6561   71.2886 C   0  0  0  0  0  0  0  0  0  0  0  0
  -12.2768   15.6000   75.1088 C   0  0  0  0  0  0  0  0  0  0  0  0
   -6.5341   17.3729   68.3685 C   0  0  0  0  0  0  0  0  0  0  0  0
   -5.1308   17.1882   68.5568 C   0  0  0  0  0  0  0  0  0  0  0  0
   -6.2352   18.5841   66.5228 C   0  0  0  0  0  0  0  0  0  0  0  0
   -4.8738   18.3561   66.5020 C   0  0  0  0  0  0  0  0  0  0  0  0
   -4.3443   17.5536   67.4637 C   0  0  0  0  0  0  0  0  0  0  0  0
  -12.3528   14.5928   75.5998 O   0  0  0  0  0  0  0  0  0  0  0  0
  -12.8124   16.6656   75.6553 O   0  0  0  0  0  0  0  0  0  0  0  0
  -13.9690   15.0121   72.8055 O   0  0  0  0  0  0  0  0  0  0  0  0
   -2.6469   17.1564   67.3748 Cl  0  0  0  0  0  0  0  0  0  0  0  0
  1  2  2  0
  1  6  1  0
  1 11  1  0
  2  3  1  0
  3  4  1  0
  3  7  1  0
  4  9  2  0
  4  5  1  0
  5  6  1  0
  5  8  1  0
  6 10  2  0
  8 13  1  0
 11 12  3  0
 16 19  1  0
 19 25  2  0
 19 26  1  0
 17 27  1  0
 24 28  1  0
 13 20  2  0
 20 21  1  0
 21 24  2  0
 24 23  1  0
 23 22  2  0
 22 13  1  0
  7 18  2  0
 18 17  1  0
 17 16  2  0
 16 15  1  0
 15 14  2  0
 14  7  1  0
M  END

$$$$
No_239-gen_results_new/Mpro_initial_molecule_p3/2024-06-19-20-31-25/
     RDKit          3D

 28 30  0  0  0  0  0  0  0  0999 V2000
  -10.3383   15.1532   67.5971 C   0  0  0  0  0  0  0  0  0  0  0  0
  -10.7220   15.1619   68.8301 N   0  0  0  0  0  0  0  0  0  0  0  0
  -10.4044   16.2024   69.6852 N   0  0  0  0  0  0  0  0  0  0  0  0
   -9.7271   17.3221   69.2607 C   0  0  0  0  0  0  0  0  0  0  0  0
   -9.3095   17.3212   67.9557 N   0  0  0  0  0  0  0  0  0  0  0  0
   -9.5450   16.2958   67.0814 C   0  0  0  0  0  0  0  0  0  0  0  0
  -10.8644   16.0907   71.0374 C   0  0  0  0  0  0  0  0  0  0  0  0
   -8.5330   18.4792   67.4604 C   0  0  0  0  0  0  0  0  0  0  0  0
   -9.5433   18.2987   69.9938 O   0  0  0  0  0  0  0  0  0  0  0  0
   -9.1481   16.2876   65.9124 O   0  0  0  0  0  0  0  0  0  0  0  0
  -10.7304   14.0247   66.8209 C   0  0  0  0  0  0  0  0  0  0  0  0
  -11.1003   13.0895   66.2465 N   0  0  0  0  0  0  0  0  0  0  0  0
   -7.0275   18.2876   67.7219 C   0  0  0  0  0  0  0  0  0  0  0  0
  -10.0126   16.3511   72.1395 C   0  0  0  0  0  0  0  0  0  0  0  0
  -10.4883   16.2212   73.4591 C   0  0  0  0  0  0  0  0  0  0  0  0
  -11.8103   15.8022   73.6966 C   0  0  0  0  0  0  0  0  0  0  0  0
  -12.6594   15.5153   72.6113 C   0  0  0  0  0  0  0  0  0  0  0  0
  -12.1896   15.6561   71.2886 C   0  0  0  0  0  0  0  0  0  0  0  0
  -12.3486   15.5799   75.3255 Cl  0  0  0  0  0  0  0  0  0  0  0  0
   -6.5344   17.3734   68.3696 C   0  0  0  0  0  0  0  0  0  0  0  0
   -5.0729   17.5397   68.5445 C   0  0  0  0  0  0  0  0  0  0  0  0
   -4.2818   18.2412   67.7613 C   0  0  0  0  0  0  0  0  0  0  0  0
   -4.9166   19.1687   66.9519 C   0  0  0  0  0  0  0  0  0  0  0  0
   -6.3130   19.1603   66.8063 C   0  0  0  0  0  0  0  0  0  0  0  0
  -14.1197   14.9539   72.8037 C   0  0  0  0  0  0  0  0  0  0  0  0
   -4.0981   20.0675   66.1145 C   0  0  0  0  0  0  0  0  0  0  0  0
   -4.3833   21.2796   66.1602 N   0  0  0  0  0  0  0  0  0  0  0  0
   -3.5978   22.1793   65.3963 C   0  0  0  0  0  0  0  0  0  0  0  0
  1  2  2  0
  1  6  1  0
  1 11  1  0
  2  3  1  0
  3  4  1  0
  3  7  1  0
  4  9  2  0
  4  5  1  0
  5  6  1  0
  5  8  1  0
  6 10  2  0
  8 13  1  0
 11 12  3  0
 16 19  1  0
 17 25  1  0
 23 26  1  0
 26 27  1  0
 27 28  1  0
 13 20  2  0
 20 21  1  0
 21 22  2  0
 22 23  1  0
 23 24  2  0
 24 13  1  0
  7 18  2  0
 18 17  1  0
 17 16  2  0
 16 15  1  0
 15 14  2  0
 14  7  1  0
M  END

$$$$
No_240-gen_results_new/Mpro_initial_molecule_p3/2024-06-19-20-31-25/
     RDKit          3D

 28 29  0  0  0  0  0  0  0  0999 V2000
  -10.3383   15.1532   67.5971 C   0  0  0  0  0  0  0  0  0  0  0  0
  -10.7220   15.1619   68.8301 N   0  0  0  0  0  0  0  0  0  0  0  0
  -10.4044   16.2024   69.6852 N   0  0  0  0  0  0  0  0  0  0  0  0
   -9.7271   17.3221   69.2607 C   0  0  0  0  0  0  0  0  0  0  0  0
   -9.3095   17.3212   67.9557 N   0  0  0  0  0  0  0  0  0  0  0  0
   -9.5450   16.2958   67.0814 C   0  0  0  0  0  0  0  0  0  0  0  0
  -10.8644   16.0907   71.0374 C   0  0  0  0  0  0  0  0  0  0  0  0
   -8.5330   18.4792   67.4604 C   0  0  0  0  0  0  0  0  0  0  0  0
   -9.5433   18.2987   69.9938 O   0  0  0  0  0  0  0  0  0  0  0  0
   -9.1481   16.2876   65.9124 O   0  0  0  0  0  0  0  0  0  0  0  0
  -10.7304   14.0247   66.8209 C   0  0  0  0  0  0  0  0  0  0  0  0
  -11.1003   13.0895   66.2465 N   0  0  0  0  0  0  0  0  0  0  0  0
   -7.0275   18.2876   67.7219 C   0  0  0  0  0  0  0  0  0  0  0  0
  -10.0126   16.3511   72.1395 C   0  0  0  0  0  0  0  0  0  0  0  0
  -10.4883   16.2212   73.4591 C   0  0  0  0  0  0  0  0  0  0  0  0
  -11.8103   15.8022   73.6966 C   0  0  0  0  0  0  0  0  0  0  0  0
  -12.6594   15.5153   72.6113 C   0  0  0  0  0  0  0  0  0  0  0  0
  -12.1896   15.6561   71.2886 C   0  0  0  0  0  0  0  0  0  0  0  0
  -12.2497   15.6113   74.9888 F   0  0  0  0  0  0  0  0  0  0  0  0
   -6.3901   19.0620   66.8366 O   0  0  0  0  0  0  0  0  0  0  0  0
   -6.5580   18.0230   68.7973 N   0  0  0  0  0  0  0  0  0  0  0  0
  -14.0962   14.9512   72.8520 C   0  0  0  0  0  0  0  0  0  0  0  0
   -5.2009   17.7348   68.9902 C   0  0  0  0  0  0  0  0  0  0  0  0
   -4.7854   18.7166   70.0553 C   0  0  0  0  0  0  0  0  0  0  0  0
   -4.2856   19.8261   69.7535 C   0  0  0  0  0  0  0  0  0  0  0  0
   -3.2447   20.0075   69.1830 C   0  0  0  0  0  0  0  0  0  0  0  0
   -2.8671   21.2021   68.8311 O   0  0  0  0  0  0  0  0  0  0  0  0
   -2.3950   19.0127   68.9600 O   0  0  0  0  0  0  0  0  0  0  0  0
  1  2  2  0
  1  6  1  0
  1 11  1  0
  2  3  1  0
  3  4  1  0
  3  7  1  0
  4  9  2  0
  4  5  1  0
  5  6  1  0
  5  8  1  0
  6 10  2  0
  8 13  1  0
 11 12  3  0
 16 19  1  0
 13 20  2  0
 13 21  1  0
 17 22  1  0
 21 23  1  0
 23 24  1  0
 24 25  1  0
 25 26  1  0
 26 27  2  0
 26 28  1  0
  7 18  2  0
 18 17  1  0
 17 16  2  0
 16 15  1  0
 15 14  2  0
 14  7  1  0
M  END

$$$$
No_241-gen_results_new/Mpro_initial_molecule_p3/2024-06-19-20-31-25/
     RDKit          3D

 28 30  0  0  0  0  0  0  0  0999 V2000
  -10.3383   15.1532   67.5971 C   0  0  0  0  0  0  0  0  0  0  0  0
  -10.7220   15.1619   68.8301 N   0  0  0  0  0  0  0  0  0  0  0  0
  -10.4044   16.2024   69.6852 N   0  0  0  0  0  0  0  0  0  0  0  0
   -9.7271   17.3221   69.2607 C   0  0  0  0  0  0  0  0  0  0  0  0
   -9.3095   17.3212   67.9557 N   0  0  0  0  0  0  0  0  0  0  0  0
   -9.5450   16.2958   67.0814 C   0  0  0  0  0  0  0  0  0  0  0  0
  -10.8644   16.0907   71.0374 C   0  0  0  0  0  0  0  0  0  0  0  0
   -8.5330   18.4792   67.4604 C   0  0  0  0  0  0  0  0  0  0  0  0
   -9.5433   18.2987   69.9938 O   0  0  0  0  0  0  0  0  0  0  0  0
   -9.1481   16.2876   65.9124 O   0  0  0  0  0  0  0  0  0  0  0  0
  -10.7304   14.0247   66.8209 C   0  0  0  0  0  0  0  0  0  0  0  0
  -11.1003   13.0895   66.2465 N   0  0  0  0  0  0  0  0  0  0  0  0
   -7.0275   18.2876   67.7219 C   0  0  0  0  0  0  0  0  0  0  0  0
  -10.0126   16.3511   72.1395 C   0  0  0  0  0  0  0  0  0  0  0  0
  -10.4883   16.2212   73.4591 C   0  0  0  0  0  0  0  0  0  0  0  0
  -11.8103   15.8022   73.6966 C   0  0  0  0  0  0  0  0  0  0  0  0
  -12.6594   15.5153   72.6113 C   0  0  0  0  0  0  0  0  0  0  0  0
  -12.1896   15.6561   71.2886 C   0  0  0  0  0  0  0  0  0  0  0  0
  -12.3486   15.5799   75.3255 Cl  0  0  0  0  0  0  0  0  0  0  0  0
   -6.3058   19.3592   66.9157 C   0  0  0  0  0  0  0  0  0  0  0  0
   -4.9894   19.4433   66.9687 C   0  0  0  0  0  0  0  0  0  0  0  0
   -4.2978   20.4626   66.3236 C   0  0  0  0  0  0  0  0  0  0  0  0
   -5.0038   21.5273   65.8706 C   0  0  0  0  0  0  0  0  0  0  0  0
   -6.4398   21.4430   65.7743 C   0  0  0  0  0  0  0  0  0  0  0  0
   -7.0866   20.3582   66.2793 C   0  0  0  0  0  0  0  0  0  0  0  0
   -4.1888   22.6329   65.1599 C   0  0  0  0  0  0  0  0  0  0  0  0
   -2.8820   22.5739   64.9406 C   0  0  0  0  0  0  0  0  0  0  0  0
   -2.1592   21.6232   65.7662 C   0  0  0  0  0  0  0  0  0  0  0  0
  1  2  2  0
  1  6  1  0
  1 11  1  0
  2  3  1  0
  3  4  1  0
  3  7  1  0
  4  9  2  0
  4  5  1  0
  5  6  1  0
  5  8  1  0
  6 10  2  0
  8 13  1  0
 11 12  3  0
 16 19  1  0
 13 20  1  0
 23 26  1  0
 26 27  2  3
 27 28  1  0
 20 21  2  0
 21 22  1  0
 22 23  2  0
 23 24  1  0
 24 25  2  0
 25 20  1  0
  7 18  2  0
 18 17  1  0
 17 16  2  0
 16 15  1  0
 15 14  2  0
 14  7  1  0
M  END

$$$$
No_242-gen_results_new/Mpro_initial_molecule_p3/2024-06-19-20-31-25/
     RDKit          3D

 28 30  0  0  0  0  0  0  0  0999 V2000
  -10.3383   15.1532   67.5971 C   0  0  0  0  0  0  0  0  0  0  0  0
  -10.7220   15.1619   68.8301 N   0  0  0  0  0  0  0  0  0  0  0  0
  -10.4044   16.2024   69.6852 N   0  0  0  0  0  0  0  0  0  0  0  0
   -9.7271   17.3221   69.2607 C   0  0  0  0  0  0  0  0  0  0  0  0
   -9.3095   17.3212   67.9557 N   0  0  0  0  0  0  0  0  0  0  0  0
   -9.5450   16.2958   67.0814 C   0  0  0  0  0  0  0  0  0  0  0  0
  -10.8644   16.0907   71.0374 C   0  0  0  0  0  0  0  0  0  0  0  0
   -8.5330   18.4792   67.4604 C   0  0  0  0  0  0  0  0  0  0  0  0
   -9.5433   18.2987   69.9938 O   0  0  0  0  0  0  0  0  0  0  0  0
   -9.1481   16.2876   65.9124 O   0  0  0  0  0  0  0  0  0  0  0  0
  -10.7304   14.0247   66.8209 C   0  0  0  0  0  0  0  0  0  0  0  0
  -11.1003   13.0895   66.2465 N   0  0  0  0  0  0  0  0  0  0  0  0
   -7.0275   18.2876   67.7219 C   0  0  0  0  0  0  0  0  0  0  0  0
  -10.0126   16.3511   72.1395 C   0  0  0  0  0  0  0  0  0  0  0  0
  -10.4883   16.2212   73.4591 C   0  0  0  0  0  0  0  0  0  0  0  0
  -11.8103   15.8022   73.6966 C   0  0  0  0  0  0  0  0  0  0  0  0
  -12.6594   15.5153   72.6113 C   0  0  0  0  0  0  0  0  0  0  0  0
  -12.1896   15.6561   71.2886 C   0  0  0  0  0  0  0  0  0  0  0  0
  -12.3486   15.5799   75.3255 Cl  0  0  0  0  0  0  0  0  0  0  0  0
   -6.4523   19.3079   67.8835 C   0  0  0  0  0  0  0  0  0  0  0  0
   -4.9674   19.3665   67.8795 C   0  0  0  0  0  0  0  0  0  0  0  0
   -4.2474   20.6429   68.0405 C   0  0  0  0  0  0  0  0  0  0  0  0
   -2.7799   20.4585   67.8108 C   0  0  0  0  0  0  0  0  0  0  0  0
   -2.2370   19.1734   67.4842 C   0  0  0  0  0  0  0  0  0  0  0  0
   -3.0113   17.9909   67.3027 C   0  0  0  0  0  0  0  0  0  0  0  0
   -4.4023   18.1070   67.4917 C   0  0  0  0  0  0  0  0  0  0  0  0
  -13.9948   15.0212   72.7821 F   0  0  0  0  0  0  0  0  0  0  0  0
   -0.8276   19.0788   67.3747 N   0  0  0  0  0  0  0  0  0  0  0  0
  1  2  2  0
  1  6  1  0
  1 11  1  0
  2  3  1  0
  3  4  1  0
  3  7  1  0
  4  9  2  0
  4  5  1  0
  5  6  1  0
  5  8  1  0
  6 10  2  0
  8 13  1  0
 11 12  3  0
 16 19  1  0
 13 20  1  0
 20 21  1  0
 17 27  1  0
 24 28  1  0
  7 18  2  0
 18 17  1  0
 17 16  2  0
 16 15  1  0
 15 14  2  0
 14  7  1  0
 21 22  2  0
 22 23  1  0
 23 24  2  0
 24 25  1  0
 25 26  2  0
 26 21  1  0
M  END

$$$$
No_243-gen_results_new/Mpro_initial_molecule_p3/2024-06-19-20-31-25/
     RDKit          3D

 28 30  0  0  0  0  0  0  0  0999 V2000
  -10.3383   15.1532   67.5971 C   0  0  0  0  0  0  0  0  0  0  0  0
  -10.7220   15.1619   68.8301 N   0  0  0  0  0  0  0  0  0  0  0  0
  -10.4044   16.2024   69.6852 N   0  0  0  0  0  0  0  0  0  0  0  0
   -9.7271   17.3221   69.2607 C   0  0  0  0  0  0  0  0  0  0  0  0
   -9.3095   17.3212   67.9557 N   0  0  0  0  0  0  0  0  0  0  0  0
   -9.5450   16.2958   67.0814 C   0  0  0  0  0  0  0  0  0  0  0  0
  -10.8644   16.0907   71.0374 C   0  0  0  0  0  0  0  0  0  0  0  0
   -8.5330   18.4792   67.4604 C   0  0  0  0  0  0  0  0  0  0  0  0
   -9.5433   18.2987   69.9938 O   0  0  0  0  0  0  0  0  0  0  0  0
   -9.1481   16.2876   65.9124 O   0  0  0  0  0  0  0  0  0  0  0  0
  -10.7304   14.0247   66.8209 C   0  0  0  0  0  0  0  0  0  0  0  0
  -11.1003   13.0895   66.2465 N   0  0  0  0  0  0  0  0  0  0  0  0
   -7.0275   18.2876   67.7219 C   0  0  0  0  0  0  0  0  0  0  0  0
  -10.0126   16.3511   72.1395 C   0  0  0  0  0  0  0  0  0  0  0  0
  -10.4883   16.2212   73.4591 C   0  0  0  0  0  0  0  0  0  0  0  0
  -11.8103   15.8022   73.6966 C   0  0  0  0  0  0  0  0  0  0  0  0
  -12.6594   15.5153   72.6113 C   0  0  0  0  0  0  0  0  0  0  0  0
  -12.1896   15.6561   71.2886 C   0  0  0  0  0  0  0  0  0  0  0  0
  -12.2484   15.6088   75.0145 O   0  0  0  0  0  0  0  0  0  0  0  0
   -6.4859   19.1438   67.9008 N   0  0  0  0  0  0  0  0  0  0  0  0
   -5.0872   19.0456   67.7885 C   0  0  0  0  0  0  0  0  0  0  0  0
   -4.2042   20.1676   68.0414 C   0  0  0  0  0  0  0  0  0  0  0  0
   -4.4204   17.8907   67.2412 C   0  0  0  0  0  0  0  0  0  0  0  0
   -3.1703   17.6793   66.9448 C   0  0  0  0  0  0  0  0  0  0  0  0
   -2.4002   18.7837   67.2509 C   0  0  0  0  0  0  0  0  0  0  0  0
   -2.8092   20.0340   67.7296 C   0  0  0  0  0  0  0  0  0  0  0  0
  -12.3390   16.7899   75.7232 C   0  0  0  0  0  0  0  0  0  0  0  0
  -14.0715   14.8943   72.8075 C   0  0  0  0  0  0  0  0  0  0  0  0
  1  2  2  0
  1  6  1  0
  1 11  1  0
  2  3  1  0
  3  4  1  0
  3  7  1  0
  4  9  2  0
  4  5  1  0
  5  6  1  0
  5  8  1  0
  6 10  2  0
  8 13  1  0
 11 12  3  0
 16 19  1  0
 13 20  1  0
 20 21  1  0
 19 27  1  0
 17 28  1  0
 21 22  2  0
 22 26  1  0
 26 25  2  0
 25 24  1  0
 24 23  2  0
 23 21  1  0
  7 18  2  0
 18 17  1  0
 17 16  2  0
 16 15  1  0
 15 14  2  0
 14  7  1  0
M  END

$$$$
No_244-gen_results_new/Mpro_initial_molecule_p3/2024-06-19-20-31-25/
     RDKit          3D

 28 30  0  0  0  0  0  0  0  0999 V2000
  -10.3383   15.1532   67.5971 C   0  0  0  0  0  0  0  0  0  0  0  0
  -10.7220   15.1619   68.8301 N   0  0  0  0  0  0  0  0  0  0  0  0
  -10.4044   16.2024   69.6852 N   0  0  0  0  0  0  0  0  0  0  0  0
   -9.7271   17.3221   69.2607 C   0  0  0  0  0  0  0  0  0  0  0  0
   -9.3095   17.3212   67.9557 N   0  0  0  0  0  0  0  0  0  0  0  0
   -9.5450   16.2958   67.0814 C   0  0  0  0  0  0  0  0  0  0  0  0
  -10.8644   16.0907   71.0374 C   0  0  0  0  0  0  0  0  0  0  0  0
   -8.5330   18.4792   67.4604 C   0  0  0  0  0  0  0  0  0  0  0  0
   -9.5433   18.2987   69.9938 O   0  0  0  0  0  0  0  0  0  0  0  0
   -9.1481   16.2876   65.9124 O   0  0  0  0  0  0  0  0  0  0  0  0
  -10.7304   14.0247   66.8209 C   0  0  0  0  0  0  0  0  0  0  0  0
  -11.1003   13.0895   66.2465 N   0  0  0  0  0  0  0  0  0  0  0  0
   -7.0275   18.2876   67.7219 C   0  0  0  0  0  0  0  0  0  0  0  0
  -10.0126   16.3511   72.1395 C   0  0  0  0  0  0  0  0  0  0  0  0
  -10.4883   16.2212   73.4591 C   0  0  0  0  0  0  0  0  0  0  0  0
  -11.8103   15.8022   73.6966 C   0  0  0  0  0  0  0  0  0  0  0  0
  -12.6594   15.5153   72.6113 C   0  0  0  0  0  0  0  0  0  0  0  0
  -12.1896   15.6561   71.2886 C   0  0  0  0  0  0  0  0  0  0  0  0
  -12.2484   15.6097   75.0215 N   0  0  0  0  0  0  0  0  0  0  0  0
   -6.5556   17.2012   67.9034 O   0  0  0  0  0  0  0  0  0  0  0  0
   -6.2800   19.2224   67.1756 N   0  0  0  0  0  0  0  0  0  0  0  0
   -4.8743   19.1477   67.1686 C   0  0  0  0  0  0  0  0  0  0  0  0
   -4.2925   20.2676   66.6666 C   0  0  0  0  0  0  0  0  0  0  0  0
   -4.8562   21.2719   66.0328 C   0  0  0  0  0  0  0  0  0  0  0  0
   -4.0512   22.4125   65.6031 C   0  0  0  0  0  0  0  0  0  0  0  0
   -2.8376   20.4032   66.8950 C   0  0  0  0  0  0  0  0  0  0  0  0
   -2.7950   22.3965   65.8138 C   0  0  0  0  0  0  0  0  0  0  0  0
   -2.1131   21.4644   66.4959 C   0  0  0  0  0  0  0  0  0  0  0  0
  1  2  2  0
  1  6  1  0
  1 11  1  0
  2  3  1  0
  3  4  1  0
  3  7  1  0
  4  9  2  0
  4  5  1  0
  5  6  1  0
  5  8  1  0
  6 10  2  0
  8 13  1  0
 11 12  3  0
 16 19  1  0
 13 20  2  0
 13 21  1  0
 21 22  1  0
 22 23  1  0
 23 24  2  0
 24 25  1  0
 25 27  2  0
 27 28  1  0
 28 26  2  0
 26 23  1  0
  7 18  2  0
 18 17  1  0
 17 16  2  0
 16 15  1  0
 15 14  2  0
 14  7  1  0
M  END

$$$$
No_245-gen_results_new/Mpro_initial_molecule_p3/2024-06-19-20-31-25/
     RDKit          3D

 28 30  0  0  0  0  0  0  0  0999 V2000
  -10.3383   15.1532   67.5971 C   0  0  0  0  0  0  0  0  0  0  0  0
  -10.7220   15.1619   68.8301 N   0  0  0  0  0  0  0  0  0  0  0  0
  -10.4044   16.2024   69.6852 N   0  0  0  0  0  0  0  0  0  0  0  0
   -9.7271   17.3221   69.2607 C   0  0  0  0  0  0  0  0  0  0  0  0
   -9.3095   17.3212   67.9557 N   0  0  0  0  0  0  0  0  0  0  0  0
   -9.5450   16.2958   67.0814 C   0  0  0  0  0  0  0  0  0  0  0  0
  -10.8644   16.0907   71.0374 C   0  0  0  0  0  0  0  0  0  0  0  0
   -8.5330   18.4792   67.4604 C   0  0  0  0  0  0  0  0  0  0  0  0
   -9.5433   18.2987   69.9938 O   0  0  0  0  0  0  0  0  0  0  0  0
   -9.1481   16.2876   65.9124 O   0  0  0  0  0  0  0  0  0  0  0  0
  -10.7304   14.0247   66.8209 C   0  0  0  0  0  0  0  0  0  0  0  0
  -11.1003   13.0895   66.2465 N   0  0  0  0  0  0  0  0  0  0  0  0
   -7.0275   18.2876   67.7219 C   0  0  0  0  0  0  0  0  0  0  0  0
  -10.0126   16.3511   72.1395 C   0  0  0  0  0  0  0  0  0  0  0  0
  -10.4883   16.2212   73.4591 C   0  0  0  0  0  0  0  0  0  0  0  0
  -11.8103   15.8022   73.6966 C   0  0  0  0  0  0  0  0  0  0  0  0
  -12.6594   15.5153   72.6113 C   0  0  0  0  0  0  0  0  0  0  0  0
  -12.1896   15.6561   71.2886 C   0  0  0  0  0  0  0  0  0  0  0  0
  -12.2484   15.6088   75.0145 O   0  0  0  0  0  0  0  0  0  0  0  0
   -6.5341   17.3731   68.3686 C   0  0  0  0  0  0  0  0  0  0  0  0
   -5.1307   17.1884   68.5569 C   0  0  0  0  0  0  0  0  0  0  0  0
   -6.2353   18.5839   66.5227 C   0  0  0  0  0  0  0  0  0  0  0  0
   -4.8739   18.3559   66.5018 C   0  0  0  0  0  0  0  0  0  0  0  0
   -4.3443   17.5536   67.4636 C   0  0  0  0  0  0  0  0  0  0  0  0
  -12.3371   16.7921   75.7210 C   0  0  0  0  0  0  0  0  0  0  0  0
  -13.9454   14.9689   72.7881 F   0  0  0  0  0  0  0  0  0  0  0  0
   -3.0213   17.2373   67.3894 F   0  0  0  0  0  0  0  0  0  0  0  0
  -11.9504   16.2742   77.2133 C   0  0  0  0  0  0  0  0  0  0  0  0
  1  2  2  0
  1  6  1  0
  1 11  1  0
  2  3  1  0
  3  4  1  0
  3  7  1  0
  4  9  2  0
  4  5  1  0
  5  6  1  0
  5  8  1  0
  6 10  2  0
  8 13  1  0
 11 12  3  0
 16 19  1  0
 19 25  1  0
 17 26  1  0
 24 27  1  0
 25 28  1  0
 13 20  2  0
 20 21  1  0
 21 24  2  0
 24 23  1  0
 23 22  2  0
 22 13  1  0
  7 18  2  0
 18 17  1  0
 17 16  2  0
 16 15  1  0
 15 14  2  0
 14  7  1  0
M  END

$$$$
No_246-gen_results_new/Mpro_initial_molecule_p3/2024-06-19-20-31-25/
     RDKit          3D

 28 30  0  0  0  0  0  0  0  0999 V2000
  -10.3383   15.1532   67.5971 C   0  0  0  0  0  0  0  0  0  0  0  0
  -10.7220   15.1619   68.8301 N   0  0  0  0  0  0  0  0  0  0  0  0
  -10.4044   16.2024   69.6852 N   0  0  0  0  0  0  0  0  0  0  0  0
   -9.7271   17.3221   69.2607 C   0  0  0  0  0  0  0  0  0  0  0  0
   -9.3095   17.3212   67.9557 N   0  0  0  0  0  0  0  0  0  0  0  0
   -9.5450   16.2958   67.0814 C   0  0  0  0  0  0  0  0  0  0  0  0
  -10.8644   16.0907   71.0374 C   0  0  0  0  0  0  0  0  0  0  0  0
   -8.5330   18.4792   67.4604 C   0  0  0  0  0  0  0  0  0  0  0  0
   -9.5433   18.2987   69.9938 O   0  0  0  0  0  0  0  0  0  0  0  0
   -9.1481   16.2876   65.9124 O   0  0  0  0  0  0  0  0  0  0  0  0
  -10.7304   14.0247   66.8209 C   0  0  0  0  0  0  0  0  0  0  0  0
  -11.1003   13.0895   66.2465 N   0  0  0  0  0  0  0  0  0  0  0  0
   -7.0275   18.2876   67.7219 C   0  0  0  0  0  0  0  0  0  0  0  0
  -10.0126   16.3511   72.1395 C   0  0  0  0  0  0  0  0  0  0  0  0
  -10.4883   16.2212   73.4591 C   0  0  0  0  0  0  0  0  0  0  0  0
  -11.8103   15.8022   73.6966 C   0  0  0  0  0  0  0  0  0  0  0  0
  -12.6594   15.5153   72.6113 C   0  0  0  0  0  0  0  0  0  0  0  0
  -12.1896   15.6561   71.2886 C   0  0  0  0  0  0  0  0  0  0  0  0
  -12.2768   15.6000   75.1088 C   0  0  0  0  0  0  0  0  0  0  0  0
   -6.5556   17.2014   67.9036 O   0  0  0  0  0  0  0  0  0  0  0  0
   -6.4128   19.3144   68.0692 N   0  0  0  0  0  0  0  0  0  0  0  0
  -11.9790   16.5266   75.8871 N   0  0  0  0  0  0  0  0  0  0  0  0
   -4.9880   19.3266   68.2184 C   0  0  0  0  0  0  0  0  0  0  0  0
   -4.6370   19.3937   69.5271 C   0  0  0  0  0  0  0  0  0  0  0  0
   -3.1837   19.5131   69.8128 C   0  0  0  0  0  0  0  0  0  0  0  0
   -2.3375   19.7251   68.7695 C   0  0  0  0  0  0  0  0  0  0  0  0
   -2.7732   19.5648   67.4624 C   0  0  0  0  0  0  0  0  0  0  0  0
   -4.1214   19.5078   67.2018 C   0  0  0  0  0  0  0  0  0  0  0  0
  1  2  2  0
  1  6  1  0
  1 11  1  0
  2  3  1  0
  3  4  1  0
  3  7  1  0
  4  9  2  0
  4  5  1  0
  5  6  1  0
  5  8  1  0
  6 10  2  0
  8 13  1  0
 11 12  3  0
 16 19  1  0
 13 20  2  0
 13 21  1  0
 19 22  1  0
 21 23  1  0
 23 24  2  0
 24 25  1  0
 25 26  2  0
 26 27  1  0
 27 28  2  0
 28 23  1  0
  7 18  2  0
 18 17  1  0
 17 16  2  0
 16 15  1  0
 15 14  2  0
 14  7  1  0
M  END

$$$$
No_247-gen_results_new/Mpro_initial_molecule_p3/2024-06-19-20-31-25/
     RDKit          3D

 28 29  0  0  0  0  0  0  0  0999 V2000
  -10.3383   15.1532   67.5971 C   0  0  0  0  0  0  0  0  0  0  0  0
  -10.7220   15.1619   68.8301 N   0  0  0  0  0  0  0  0  0  0  0  0
  -10.4044   16.2024   69.6852 N   0  0  0  0  0  0  0  0  0  0  0  0
   -9.7271   17.3221   69.2607 C   0  0  0  0  0  0  0  0  0  0  0  0
   -9.3095   17.3212   67.9557 N   0  0  0  0  0  0  0  0  0  0  0  0
   -9.5450   16.2958   67.0814 C   0  0  0  0  0  0  0  0  0  0  0  0
  -10.8644   16.0907   71.0374 C   0  0  0  0  0  0  0  0  0  0  0  0
   -8.5330   18.4792   67.4604 C   0  0  0  0  0  0  0  0  0  0  0  0
   -9.5433   18.2987   69.9938 O   0  0  0  0  0  0  0  0  0  0  0  0
   -9.1481   16.2876   65.9124 O   0  0  0  0  0  0  0  0  0  0  0  0
  -10.7304   14.0247   66.8209 C   0  0  0  0  0  0  0  0  0  0  0  0
  -11.1003   13.0895   66.2465 N   0  0  0  0  0  0  0  0  0  0  0  0
   -7.0275   18.2876   67.7219 C   0  0  0  0  0  0  0  0  0  0  0  0
  -10.0126   16.3511   72.1395 C   0  0  0  0  0  0  0  0  0  0  0  0
  -10.4883   16.2212   73.4591 C   0  0  0  0  0  0  0  0  0  0  0  0
  -11.8103   15.8022   73.6966 C   0  0  0  0  0  0  0  0  0  0  0  0
  -12.6594   15.5153   72.6113 C   0  0  0  0  0  0  0  0  0  0  0  0
  -12.1896   15.6561   71.2886 C   0  0  0  0  0  0  0  0  0  0  0  0
  -12.2484   15.6088   75.0145 O   0  0  0  0  0  0  0  0  0  0  0  0
   -6.5557   17.2016   67.9039 O   0  0  0  0  0  0  0  0  0  0  0  0
   -6.3089   19.3657   67.4559 N   0  0  0  0  0  0  0  0  0  0  0  0
   -4.9194   19.4056   67.5523 C   0  0  0  0  0  0  0  0  0  0  0  0
   -4.3166   19.6209   66.3442 C   0  0  0  0  0  0  0  0  0  0  0  0
   -4.6949   20.3697   65.3146 C   0  0  0  0  0  0  0  0  0  0  0  0
   -5.3503   21.1426   65.5169 F   0  0  0  0  0  0  0  0  0  0  0  0
   -5.4862   19.5539   64.5240 F   0  0  0  0  0  0  0  0  0  0  0  0
   -3.8133   20.7744   64.3576 F   0  0  0  0  0  0  0  0  0  0  0  0
  -12.3385   16.7912   75.7227 C   0  0  0  0  0  0  0  0  0  0  0  0
  1  2  2  0
  1  6  1  0
  1 11  1  0
  2  3  1  0
  3  4  1  0
  3  7  1  0
  4  9  2  0
  4  5  1  0
  5  6  1  0
  5  8  1  0
  6 10  2  0
  8 13  1  0
 11 12  3  0
 16 19  1  0
 13 20  2  0
 13 21  1  0
 21 22  1  0
 22 23  1  0
 23 24  1  0
 24 25  1  0
 24 26  1  0
 24 27  1  0
 19 28  1  0
  7 18  2  0
 18 17  1  0
 17 16  2  0
 16 15  1  0
 15 14  2  0
 14  7  1  0
M  END

$$$$
No_248-gen_results_new/Mpro_initial_molecule_p3/2024-06-19-20-31-25/
     RDKit          3D

 28 30  0  0  0  0  0  0  0  0999 V2000
  -10.3383   15.1532   67.5971 C   0  0  0  0  0  0  0  0  0  0  0  0
  -10.7220   15.1619   68.8301 N   0  0  0  0  0  0  0  0  0  0  0  0
  -10.4044   16.2024   69.6852 N   0  0  0  0  0  0  0  0  0  0  0  0
   -9.7271   17.3221   69.2607 C   0  0  0  0  0  0  0  0  0  0  0  0
   -9.3095   17.3212   67.9557 N   0  0  0  0  0  0  0  0  0  0  0  0
   -9.5450   16.2958   67.0814 C   0  0  0  0  0  0  0  0  0  0  0  0
  -10.8644   16.0907   71.0374 C   0  0  0  0  0  0  0  0  0  0  0  0
   -8.5330   18.4792   67.4604 C   0  0  0  0  0  0  0  0  0  0  0  0
   -9.5433   18.2987   69.9938 O   0  0  0  0  0  0  0  0  0  0  0  0
   -9.1481   16.2876   65.9124 O   0  0  0  0  0  0  0  0  0  0  0  0
  -10.7304   14.0247   66.8209 C   0  0  0  0  0  0  0  0  0  0  0  0
  -11.1003   13.0895   66.2465 N   0  0  0  0  0  0  0  0  0  0  0  0
   -7.0275   18.2876   67.7219 C   0  0  0  0  0  0  0  0  0  0  0  0
  -10.0126   16.3511   72.1395 C   0  0  0  0  0  0  0  0  0  0  0  0
  -10.4883   16.2212   73.4591 C   0  0  0  0  0  0  0  0  0  0  0  0
  -11.8103   15.8022   73.6966 C   0  0  0  0  0  0  0  0  0  0  0  0
  -12.6594   15.5153   72.6113 C   0  0  0  0  0  0  0  0  0  0  0  0
  -12.1896   15.6561   71.2886 C   0  0  0  0  0  0  0  0  0  0  0  0
  -12.2768   15.6000   75.1088 C   0  0  0  0  0  0  0  0  0  0  0  0
   -6.5341   17.3729   68.3685 C   0  0  0  0  0  0  0  0  0  0  0  0
   -5.1308   17.1882   68.5568 C   0  0  0  0  0  0  0  0  0  0  0  0
   -6.2282   19.1886   66.9092 C   0  0  0  0  0  0  0  0  0  0  0  0
   -4.8273   19.0035   67.0391 C   0  0  0  0  0  0  0  0  0  0  0  0
   -4.3060   18.0195   67.7979 C   0  0  0  0  0  0  0  0  0  0  0  0
  -12.3528   14.5927   75.5997 O   0  0  0  0  0  0  0  0  0  0  0  0
  -12.4213   16.7487   75.8003 N   0  0  0  0  0  0  0  0  0  0  0  0
   -6.7604   20.1930   66.1161 O   0  0  0  0  0  0  0  0  0  0  0  0
   -4.4845   15.9019   69.5517 Cl  0  0  0  0  0  0  0  0  0  0  0  0
  1  2  2  0
  1  6  1  0
  1 11  1  0
  2  3  1  0
  3  4  1  0
  3  7  1  0
  4  9  2  0
  4  5  1  0
  5  6  1  0
  5  8  1  0
  6 10  2  0
  8 13  1  0
 11 12  3  0
 16 19  1  0
 19 25  2  0
 19 26  1  0
 22 27  1  0
 21 28  1  0
 13 20  2  0
 20 21  1  0
 21 24  2  0
 24 23  1  0
 23 22  2  0
 22 13  1  0
  7 18  2  0
 18 17  1  0
 17 16  2  0
 16 15  1  0
 15 14  2  0
 14  7  1  0
M  END

$$$$
No_249-gen_results_new/Mpro_initial_molecule_p3/2024-06-19-20-31-25/
     RDKit          3D

 28 30  0  0  0  0  0  0  0  0999 V2000
  -10.3383   15.1532   67.5971 C   0  0  0  0  0  0  0  0  0  0  0  0
  -10.7220   15.1619   68.8301 N   0  0  0  0  0  0  0  0  0  0  0  0
  -10.4044   16.2024   69.6852 N   0  0  0  0  0  0  0  0  0  0  0  0
   -9.7271   17.3221   69.2607 C   0  0  0  0  0  0  0  0  0  0  0  0
   -9.3095   17.3212   67.9557 N   0  0  0  0  0  0  0  0  0  0  0  0
   -9.5450   16.2958   67.0814 C   0  0  0  0  0  0  0  0  0  0  0  0
  -10.8644   16.0907   71.0374 C   0  0  0  0  0  0  0  0  0  0  0  0
   -8.5330   18.4792   67.4604 C   0  0  0  0  0  0  0  0  0  0  0  0
   -9.5433   18.2987   69.9938 O   0  0  0  0  0  0  0  0  0  0  0  0
   -9.1481   16.2876   65.9124 O   0  0  0  0  0  0  0  0  0  0  0  0
  -10.7304   14.0247   66.8209 C   0  0  0  0  0  0  0  0  0  0  0  0
  -11.1003   13.0895   66.2465 N   0  0  0  0  0  0  0  0  0  0  0  0
   -7.0275   18.2876   67.7219 C   0  0  0  0  0  0  0  0  0  0  0  0
  -10.0126   16.3511   72.1395 C   0  0  0  0  0  0  0  0  0  0  0  0
  -10.4883   16.2212   73.4591 C   0  0  0  0  0  0  0  0  0  0  0  0
  -11.8103   15.8022   73.6966 C   0  0  0  0  0  0  0  0  0  0  0  0
  -12.6594   15.5153   72.6113 C   0  0  0  0  0  0  0  0  0  0  0  0
  -12.1896   15.6561   71.2886 C   0  0  0  0  0  0  0  0  0  0  0  0
  -12.2768   15.6000   75.1088 C   0  0  0  0  0  0  0  0  0  0  0  0
   -6.5341   17.3729   68.3685 C   0  0  0  0  0  0  0  0  0  0  0  0
   -5.1308   17.1882   68.5568 C   0  0  0  0  0  0  0  0  0  0  0  0
   -6.2282   19.1886   66.9092 C   0  0  0  0  0  0  0  0  0  0  0  0
   -6.7440   20.1555   66.1279 O   0  0  0  0  0  0  0  0  0  0  0  0
   -4.2883   18.0724   67.8565 C   0  0  0  0  0  0  0  0  0  0  0  0
   -4.8283   19.0558   67.0447 C   0  0  0  0  0  0  0  0  0  0  0  0
  -11.9564   16.3204   75.9316 O   0  0  0  0  0  0  0  0  0  0  0  0
  -12.7886   14.4774   75.3656 O   0  0  0  0  0  0  0  0  0  0  0  0
   -4.4738   15.9206   69.5626 Cl  0  0  0  0  0  0  0  0  0  0  0  0
  1  2  2  0
  1  6  1  0
  1 11  1  0
  2  3  1  0
  3  4  1  0
  3  7  1  0
  4  9  2  0
  4  5  1  0
  5  6  1  0
  5  8  1  0
  6 10  2  0
  8 13  1  0
 11 12  3  0
 16 19  1  0
 22 23  1  0
 19 26  2  0
 19 27  1  0
 21 28  1  0
  7 18  2  0
 18 17  1  0
 17 16  2  0
 16 15  1  0
 15 14  2  0
 14  7  1  0
 13 20  2  0
 20 21  1  0
 21 24  2  0
 24 25  1  0
 25 22  2  0
 22 13  1  0
M  END

$$$$
No_250-gen_results_new/Mpro_initial_molecule_p3/2024-06-19-20-31-25/
     RDKit          3D

 28 30  0  0  0  0  0  0  0  0999 V2000
  -10.3383   15.1532   67.5971 C   0  0  0  0  0  0  0  0  0  0  0  0
  -10.7220   15.1619   68.8301 N   0  0  0  0  0  0  0  0  0  0  0  0
  -10.4044   16.2024   69.6852 N   0  0  0  0  0  0  0  0  0  0  0  0
   -9.7271   17.3221   69.2607 C   0  0  0  0  0  0  0  0  0  0  0  0
   -9.3095   17.3212   67.9557 N   0  0  0  0  0  0  0  0  0  0  0  0
   -9.5450   16.2958   67.0814 C   0  0  0  0  0  0  0  0  0  0  0  0
  -10.8644   16.0907   71.0374 C   0  0  0  0  0  0  0  0  0  0  0  0
   -8.5330   18.4792   67.4604 C   0  0  0  0  0  0  0  0  0  0  0  0
   -9.5433   18.2987   69.9938 O   0  0  0  0  0  0  0  0  0  0  0  0
   -9.1481   16.2876   65.9124 O   0  0  0  0  0  0  0  0  0  0  0  0
  -10.7304   14.0247   66.8209 C   0  0  0  0  0  0  0  0  0  0  0  0
  -11.1003   13.0895   66.2465 N   0  0  0  0  0  0  0  0  0  0  0  0
   -7.0275   18.2876   67.7219 C   0  0  0  0  0  0  0  0  0  0  0  0
  -10.0126   16.3511   72.1395 C   0  0  0  0  0  0  0  0  0  0  0  0
  -10.4883   16.2212   73.4591 C   0  0  0  0  0  0  0  0  0  0  0  0
  -11.8103   15.8022   73.6966 C   0  0  0  0  0  0  0  0  0  0  0  0
  -12.6594   15.5153   72.6113 C   0  0  0  0  0  0  0  0  0  0  0  0
  -12.1896   15.6561   71.2886 C   0  0  0  0  0  0  0  0  0  0  0  0
  -12.2768   15.6000   75.1088 C   0  0  0  0  0  0  0  0  0  0  0  0
   -6.5341   17.3729   68.3685 C   0  0  0  0  0  0  0  0  0  0  0  0
   -5.1249   17.1827   68.5818 C   0  0  0  0  0  0  0  0  0  0  0  0
   -4.2977   17.9486   67.7745 C   0  0  0  0  0  0  0  0  0  0  0  0
   -4.9516   18.8746   67.0324 C   0  0  0  0  0  0  0  0  0  0  0  0
   -6.2501   19.0634   66.8457 C   0  0  0  0  0  0  0  0  0  0  0  0
  -12.3528   14.5928   75.5997 O   0  0  0  0  0  0  0  0  0  0  0  0
  -12.4212   16.7487   75.8004 N   0  0  0  0  0  0  0  0  0  0  0  0
  -14.3057   14.8841   72.8627 Cl  0  0  0  0  0  0  0  0  0  0  0  0
   -4.0609   19.7106   66.1636 O   0  0  0  0  0  0  0  0  0  0  0  0
  1  2  2  0
  1  6  1  0
  1 11  1  0
  2  3  1  0
  3  4  1  0
  3  7  1  0
  4  9  2  0
  4  5  1  0
  5  6  1  0
  5  8  1  0
  6 10  2  0
  8 13  1  0
 11 12  3  0
 16 19  1  0
 19 25  2  0
 19 26  1  0
 17 27  1  0
 23 28  1  0
 13 20  2  0
 20 21  1  0
 21 22  2  0
 22 23  1  0
 23 24  2  0
 24 13  1  0
  7 18  2  0
 18 17  1  0
 17 16  2  0
 16 15  1  0
 15 14  2  0
 14  7  1  0
M  END

$$$$
No_251-gen_results_new/Mpro_initial_molecule_p3/2024-06-19-20-31-25/
     RDKit          3D

 28 30  0  0  0  0  0  0  0  0999 V2000
  -10.3383   15.1532   67.5971 C   0  0  0  0  0  0  0  0  0  0  0  0
  -10.7220   15.1619   68.8301 N   0  0  0  0  0  0  0  0  0  0  0  0
  -10.4044   16.2024   69.6852 N   0  0  0  0  0  0  0  0  0  0  0  0
   -9.7271   17.3221   69.2607 C   0  0  0  0  0  0  0  0  0  0  0  0
   -9.3095   17.3212   67.9557 N   0  0  0  0  0  0  0  0  0  0  0  0
   -9.5450   16.2958   67.0814 C   0  0  0  0  0  0  0  0  0  0  0  0
  -10.8644   16.0907   71.0374 C   0  0  0  0  0  0  0  0  0  0  0  0
   -8.5330   18.4792   67.4604 C   0  0  0  0  0  0  0  0  0  0  0  0
   -9.5433   18.2987   69.9938 O   0  0  0  0  0  0  0  0  0  0  0  0
   -9.1481   16.2876   65.9124 O   0  0  0  0  0  0  0  0  0  0  0  0
  -10.7304   14.0247   66.8209 C   0  0  0  0  0  0  0  0  0  0  0  0
  -11.1003   13.0895   66.2465 N   0  0  0  0  0  0  0  0  0  0  0  0
   -7.0275   18.2876   67.7219 C   0  0  0  0  0  0  0  0  0  0  0  0
  -10.0126   16.3511   72.1395 C   0  0  0  0  0  0  0  0  0  0  0  0
  -10.4883   16.2212   73.4591 C   0  0  0  0  0  0  0  0  0  0  0  0
  -11.8103   15.8022   73.6966 C   0  0  0  0  0  0  0  0  0  0  0  0
  -12.6594   15.5153   72.6113 C   0  0  0  0  0  0  0  0  0  0  0  0
  -12.1896   15.6561   71.2886 C   0  0  0  0  0  0  0  0  0  0  0  0
  -12.2768   15.6000   75.1088 C   0  0  0  0  0  0  0  0  0  0  0  0
   -6.5341   17.3729   68.3685 C   0  0  0  0  0  0  0  0  0  0  0  0
   -5.1308   17.1882   68.5568 C   0  0  0  0  0  0  0  0  0  0  0  0
   -6.2282   19.1886   66.9092 C   0  0  0  0  0  0  0  0  0  0  0  0
   -4.8273   19.0035   67.0391 C   0  0  0  0  0  0  0  0  0  0  0  0
   -4.3060   18.0195   67.7979 C   0  0  0  0  0  0  0  0  0  0  0  0
  -12.5817   16.5942   75.6961 O   0  0  0  0  0  0  0  0  0  0  0  0
  -11.8940   14.5562   75.6561 O   0  0  0  0  0  0  0  0  0  0  0  0
   -6.8545   20.1871   66.1267 N   0  0  0  0  0  0  0  0  0  0  0  0
   -8.2914   20.2455   66.0160 C   0  0  0  0  0  0  0  0  0  0  0  0
  1  2  2  0
  1  6  1  0
  1 11  1  0
  2  3  1  0
  3  4  1  0
  3  7  1  0
  4  9  2  0
  4  5  1  0
  5  6  1  0
  5  8  1  0
  6 10  2  0
  8 13  1  0
 11 12  3  0
 16 19  1  0
 19 25  2  0
 19 26  1  0
 22 27  1  0
 27 28  1  0
 13 20  2  0
 20 21  1  0
 21 24  2  0
 24 23  1  0
 23 22  2  0
 22 13  1  0
  7 18  2  0
 18 17  1  0
 17 16  2  0
 16 15  1  0
 15 14  2  0
 14  7  1  0
M  END

$$$$
No_252-gen_results_new/Mpro_initial_molecule_p3/2024-06-19-20-31-25/
     RDKit          3D

 28 30  0  0  0  0  0  0  0  0999 V2000
  -10.3383   15.1532   67.5971 C   0  0  0  0  0  0  0  0  0  0  0  0
  -10.7220   15.1619   68.8301 N   0  0  0  0  0  0  0  0  0  0  0  0
  -10.4044   16.2024   69.6852 N   0  0  0  0  0  0  0  0  0  0  0  0
   -9.7271   17.3221   69.2607 C   0  0  0  0  0  0  0  0  0  0  0  0
   -9.3095   17.3212   67.9557 N   0  0  0  0  0  0  0  0  0  0  0  0
   -9.5450   16.2958   67.0814 C   0  0  0  0  0  0  0  0  0  0  0  0
  -10.8644   16.0907   71.0374 C   0  0  0  0  0  0  0  0  0  0  0  0
   -8.5330   18.4792   67.4604 C   0  0  0  0  0  0  0  0  0  0  0  0
   -9.5433   18.2987   69.9938 O   0  0  0  0  0  0  0  0  0  0  0  0
   -9.1481   16.2876   65.9124 O   0  0  0  0  0  0  0  0  0  0  0  0
  -10.7304   14.0247   66.8209 C   0  0  0  0  0  0  0  0  0  0  0  0
  -11.1003   13.0895   66.2465 N   0  0  0  0  0  0  0  0  0  0  0  0
   -7.0275   18.2876   67.7219 C   0  0  0  0  0  0  0  0  0  0  0  0
  -10.0126   16.3511   72.1395 C   0  0  0  0  0  0  0  0  0  0  0  0
  -10.4883   16.2212   73.4591 C   0  0  0  0  0  0  0  0  0  0  0  0
  -11.8103   15.8022   73.6966 C   0  0  0  0  0  0  0  0  0  0  0  0
  -12.6594   15.5153   72.6113 C   0  0  0  0  0  0  0  0  0  0  0  0
  -12.1896   15.6561   71.2886 C   0  0  0  0  0  0  0  0  0  0  0  0
  -12.2768   15.6000   75.1088 C   0  0  0  0  0  0  0  0  0  0  0  0
   -6.3059   19.3590   66.9154 C   0  0  0  0  0  0  0  0  0  0  0  0
   -7.0069   20.0396   66.0823 C   0  0  0  0  0  0  0  0  0  0  0  0
   -8.3351   20.2280   65.8978 C   0  0  0  0  0  0  0  0  0  0  0  0
   -9.1791   19.1617   66.4367 C   0  0  0  0  0  0  0  0  0  0  0  0
  -12.3545   14.5928   75.5995 O   0  0  0  0  0  0  0  0  0  0  0  0
  -12.2283   16.6684   75.8384 O   0  0  0  0  0  0  0  0  0  0  0  0
   -6.1094   21.0335   65.4123 N   0  0  0  0  0  0  0  0  0  0  0  0
  -14.3134   14.8807   72.8675 Cl  0  0  0  0  0  0  0  0  0  0  0  0
   -5.2970   20.8478   64.4257 C   0  0  0  0  0  0  0  0  0  0  0  0
  1  2  2  0
  1  6  1  0
  1 11  1  0
  2  3  1  0
  3  4  1  0
  3  7  1  0
  4  9  2  0
  4  5  1  0
  5  6  1  0
  5  8  1  0
  6 10  2  0
 11 12  3  0
 16 19  1  0
 19 24  2  0
 19 25  1  0
 21 26  1  0
 17 27  1  0
 26 28  1  0
  8 13  2  0
 13 20  1  0
 20 21  2  0
 21 22  1  0
 22 23  2  0
 23  8  1  0
  7 18  2  0
 18 17  1  0
 17 16  2  0
 16 15  1  0
 15 14  2  0
 14  7  1  0
M  END

$$$$
No_253-gen_results_new/Mpro_initial_molecule_p3/2024-06-19-20-31-25/
     RDKit          3D

 28 30  0  0  0  0  0  0  0  0999 V2000
  -10.3383   15.1532   67.5971 C   0  0  0  0  0  0  0  0  0  0  0  0
  -10.7220   15.1619   68.8301 N   0  0  0  0  0  0  0  0  0  0  0  0
  -10.4044   16.2024   69.6852 N   0  0  0  0  0  0  0  0  0  0  0  0
   -9.7271   17.3221   69.2607 C   0  0  0  0  0  0  0  0  0  0  0  0
   -9.3095   17.3212   67.9557 N   0  0  0  0  0  0  0  0  0  0  0  0
   -9.5450   16.2958   67.0814 C   0  0  0  0  0  0  0  0  0  0  0  0
  -10.8644   16.0907   71.0374 C   0  0  0  0  0  0  0  0  0  0  0  0
   -8.5330   18.4792   67.4604 C   0  0  0  0  0  0  0  0  0  0  0  0
   -9.5433   18.2987   69.9938 O   0  0  0  0  0  0  0  0  0  0  0  0
   -9.1481   16.2876   65.9124 O   0  0  0  0  0  0  0  0  0  0  0  0
  -10.7304   14.0247   66.8209 C   0  0  0  0  0  0  0  0  0  0  0  0
  -11.1003   13.0895   66.2465 N   0  0  0  0  0  0  0  0  0  0  0  0
   -7.0275   18.2876   67.7219 C   0  0  0  0  0  0  0  0  0  0  0  0
  -10.0126   16.3511   72.1395 C   0  0  0  0  0  0  0  0  0  0  0  0
  -10.4883   16.2212   73.4591 C   0  0  0  0  0  0  0  0  0  0  0  0
  -11.8103   15.8022   73.6966 C   0  0  0  0  0  0  0  0  0  0  0  0
  -12.6594   15.5153   72.6113 C   0  0  0  0  0  0  0  0  0  0  0  0
  -12.1896   15.6561   71.2886 C   0  0  0  0  0  0  0  0  0  0  0  0
  -12.2484   15.6088   75.0145 O   0  0  0  0  0  0  0  0  0  0  0  0
   -6.5341   17.3731   68.3686 C   0  0  0  0  0  0  0  0  0  0  0  0
   -5.1307   17.1884   68.5569 C   0  0  0  0  0  0  0  0  0  0  0  0
   -6.3133   19.4047   67.2944 C   0  0  0  0  0  0  0  0  0  0  0  0
   -4.9040   19.2890   67.4763 C   0  0  0  0  0  0  0  0  0  0  0  0
   -4.3512   18.1960   68.1016 C   0  0  0  0  0  0  0  0  0  0  0  0
  -12.3359   16.7923   75.7212 C   0  0  0  0  0  0  0  0  0  0  0  0
   -4.0545   20.4399   67.0443 C   0  0  0  0  0  0  0  0  0  0  0  0
   -3.8759   20.6546   65.8043 N   0  0  0  0  0  0  0  0  0  0  0  0
   -4.3522   20.0805   64.8299 C   0  0  0  0  0  0  0  0  0  0  0  0
  1  2  2  0
  1  6  1  0
  1 11  1  0
  2  3  1  0
  3  4  1  0
  3  7  1  0
  4  9  2  0
  4  5  1  0
  5  6  1  0
  5  8  1  0
  6 10  2  0
  8 13  1  0
 11 12  3  0
 16 19  1  0
 19 25  1  0
 23 26  1  0
 26 27  1  0
 27 28  1  0
 13 20  2  0
 20 21  1  0
 21 24  2  0
 24 23  1  0
 23 22  2  0
 22 13  1  0
  7 18  2  0
 18 17  1  0
 17 16  2  0
 16 15  1  0
 15 14  2  0
 14  7  1  0
M  END

$$$$
No_254-gen_results_new/Mpro_initial_molecule_p3/2024-06-19-20-31-25/
     RDKit          3D

 28 30  0  0  0  0  0  0  0  0999 V2000
  -10.3383   15.1532   67.5971 C   0  0  0  0  0  0  0  0  0  0  0  0
  -10.7220   15.1619   68.8301 N   0  0  0  0  0  0  0  0  0  0  0  0
  -10.4044   16.2024   69.6852 N   0  0  0  0  0  0  0  0  0  0  0  0
   -9.7271   17.3221   69.2607 C   0  0  0  0  0  0  0  0  0  0  0  0
   -9.3095   17.3212   67.9557 N   0  0  0  0  0  0  0  0  0  0  0  0
   -9.5450   16.2958   67.0814 C   0  0  0  0  0  0  0  0  0  0  0  0
  -10.8644   16.0907   71.0374 C   0  0  0  0  0  0  0  0  0  0  0  0
   -8.5330   18.4792   67.4604 C   0  0  0  0  0  0  0  0  0  0  0  0
   -9.5433   18.2987   69.9938 O   0  0  0  0  0  0  0  0  0  0  0  0
   -9.1481   16.2876   65.9124 O   0  0  0  0  0  0  0  0  0  0  0  0
  -10.7304   14.0247   66.8209 C   0  0  0  0  0  0  0  0  0  0  0  0
  -11.1003   13.0895   66.2465 N   0  0  0  0  0  0  0  0  0  0  0  0
   -7.0275   18.2876   67.7219 C   0  0  0  0  0  0  0  0  0  0  0  0
  -10.0126   16.3511   72.1395 C   0  0  0  0  0  0  0  0  0  0  0  0
  -10.4883   16.2212   73.4591 C   0  0  0  0  0  0  0  0  0  0  0  0
  -11.8103   15.8022   73.6966 C   0  0  0  0  0  0  0  0  0  0  0  0
  -12.6594   15.5153   72.6113 C   0  0  0  0  0  0  0  0  0  0  0  0
  -12.1896   15.6561   71.2886 C   0  0  0  0  0  0  0  0  0  0  0  0
  -12.3486   15.5799   75.3255 Cl  0  0  0  0  0  0  0  0  0  0  0  0
   -6.5344   17.3734   68.3696 C   0  0  0  0  0  0  0  0  0  0  0  0
   -5.1249   17.1828   68.5820 C   0  0  0  0  0  0  0  0  0  0  0  0
   -4.6282   16.2450   69.3457 N   0  0  0  0  0  0  0  0  0  0  0  0
   -6.2725   19.4204   67.3470 C   0  0  0  0  0  0  0  0  0  0  0  0
   -4.2921   18.1456   68.1005 C   0  0  0  0  0  0  0  0  0  0  0  0
   -4.8896   19.2879   67.5162 C   0  0  0  0  0  0  0  0  0  0  0  0
   -5.0474   15.6135   70.4736 C   0  0  0  0  0  0  0  0  0  0  0  0
   -5.5604   16.2424   71.4287 C   0  0  0  0  0  0  0  0  0  0  0  0
   -5.7231   14.3911   70.2918 C   0  0  0  0  0  0  0  0  0  0  0  0
  1  2  2  0
  1  6  1  0
  1 11  1  0
  2  3  1  0
  3  4  1  0
  3  7  1  0
  4  9  2  0
  4  5  1  0
  5  6  1  0
  5  8  1  0
  6 10  2  0
  8 13  1  0
 11 12  3  0
 16 19  1  0
 21 22  1  0
 22 26  1  0
 26 27  1  0
 26 28  1  0
 13 20  2  0
 20 21  1  0
 21 24  2  0
 24 25  1  0
 25 23  2  0
 23 13  1  0
  7 18  2  0
 18 17  1  0
 17 16  2  0
 16 15  1  0
 15 14  2  0
 14  7  1  0
M  END

$$$$
No_255-gen_results_new/Mpro_initial_molecule_p3/2024-06-19-20-31-25/
     RDKit          3D

 28 30  0  0  0  0  0  0  0  0999 V2000
  -10.3383   15.1532   67.5971 C   0  0  0  0  0  0  0  0  0  0  0  0
  -10.7220   15.1619   68.8301 N   0  0  0  0  0  0  0  0  0  0  0  0
  -10.4044   16.2024   69.6852 N   0  0  0  0  0  0  0  0  0  0  0  0
   -9.7271   17.3221   69.2607 C   0  0  0  0  0  0  0  0  0  0  0  0
   -9.3095   17.3212   67.9557 N   0  0  0  0  0  0  0  0  0  0  0  0
   -9.5450   16.2958   67.0814 C   0  0  0  0  0  0  0  0  0  0  0  0
  -10.8644   16.0907   71.0374 C   0  0  0  0  0  0  0  0  0  0  0  0
   -8.5330   18.4792   67.4604 C   0  0  0  0  0  0  0  0  0  0  0  0
   -9.5433   18.2987   69.9938 O   0  0  0  0  0  0  0  0  0  0  0  0
   -9.1481   16.2876   65.9124 O   0  0  0  0  0  0  0  0  0  0  0  0
  -10.7304   14.0247   66.8209 C   0  0  0  0  0  0  0  0  0  0  0  0
  -11.1003   13.0895   66.2465 N   0  0  0  0  0  0  0  0  0  0  0  0
   -7.0275   18.2876   67.7219 C   0  0  0  0  0  0  0  0  0  0  0  0
  -10.0126   16.3511   72.1395 C   0  0  0  0  0  0  0  0  0  0  0  0
  -10.4883   16.2212   73.4591 C   0  0  0  0  0  0  0  0  0  0  0  0
  -11.8103   15.8022   73.6966 C   0  0  0  0  0  0  0  0  0  0  0  0
  -12.6594   15.5153   72.6113 C   0  0  0  0  0  0  0  0  0  0  0  0
  -12.1896   15.6561   71.2886 C   0  0  0  0  0  0  0  0  0  0  0  0
  -12.2484   15.6088   75.0145 O   0  0  0  0  0  0  0  0  0  0  0  0
   -6.4522   19.3083   67.8828 C   0  0  0  0  0  0  0  0  0  0  0  0
   -6.2560   20.3852   67.0148 C   0  0  0  0  0  0  0  0  0  0  0  0
   -7.6348   20.5655   66.3051 C   0  0  0  0  0  0  0  0  0  0  0  0
   -8.7557   19.5958   66.5583 C   0  0  0  0  0  0  0  0  0  0  0  0
   -5.4251   21.2899   66.7540 O   0  0  0  0  0  0  0  0  0  0  0  0
  -12.3388   16.7914   75.7225 C   0  0  0  0  0  0  0  0  0  0  0  0
  -14.3027   14.8190   72.8440 Cl  0  0  0  0  0  0  0  0  0  0  0  0
   -4.3991   21.0911   66.0095 C   0  0  0  0  0  0  0  0  0  0  0  0
   -4.0273   21.9950   65.3536 C   0  0  0  0  0  0  0  0  0  0  0  0
  1  2  2  0
  1  6  1  0
  1 11  1  0
  2  3  1  0
  3  4  1  0
  3  7  1  0
  4  9  2  0
  4  5  1  0
  5  6  1  0
  5  8  1  0
  6 10  2  0
 11 12  3  0
 16 19  1  0
 21 24  1  0
 19 25  1  0
 17 26  1  0
 24 27  1  0
 27 28  1  0
  8 13  2  0
 13 20  1  0
 20 21  2  0
 21 22  1  0
 22 23  2  0
 23  8  1  0
  7 18  2  0
 18 17  1  0
 17 16  2  0
 16 15  1  0
 15 14  2  0
 14  7  1  0
M  END

$$$$
No_256-gen_results_new/Mpro_initial_molecule_p3/2024-06-19-20-31-25/
     RDKit          3D

 28 30  0  0  0  0  0  0  0  0999 V2000
  -10.3383   15.1532   67.5971 C   0  0  0  0  0  0  0  0  0  0  0  0
  -10.7220   15.1619   68.8301 N   0  0  0  0  0  0  0  0  0  0  0  0
  -10.4044   16.2024   69.6852 N   0  0  0  0  0  0  0  0  0  0  0  0
   -9.7271   17.3221   69.2607 C   0  0  0  0  0  0  0  0  0  0  0  0
   -9.3095   17.3212   67.9557 N   0  0  0  0  0  0  0  0  0  0  0  0
   -9.5450   16.2958   67.0814 C   0  0  0  0  0  0  0  0  0  0  0  0
  -10.8644   16.0907   71.0374 C   0  0  0  0  0  0  0  0  0  0  0  0
   -8.5330   18.4792   67.4604 C   0  0  0  0  0  0  0  0  0  0  0  0
   -9.5433   18.2987   69.9938 O   0  0  0  0  0  0  0  0  0  0  0  0
   -9.1481   16.2876   65.9124 O   0  0  0  0  0  0  0  0  0  0  0  0
  -10.7304   14.0247   66.8209 C   0  0  0  0  0  0  0  0  0  0  0  0
  -11.1003   13.0895   66.2465 N   0  0  0  0  0  0  0  0  0  0  0  0
   -7.0275   18.2876   67.7219 C   0  0  0  0  0  0  0  0  0  0  0  0
  -10.0126   16.3511   72.1395 C   0  0  0  0  0  0  0  0  0  0  0  0
  -10.4883   16.2212   73.4591 C   0  0  0  0  0  0  0  0  0  0  0  0
  -11.8103   15.8022   73.6966 C   0  0  0  0  0  0  0  0  0  0  0  0
  -12.6594   15.5153   72.6113 C   0  0  0  0  0  0  0  0  0  0  0  0
  -12.1896   15.6561   71.2886 C   0  0  0  0  0  0  0  0  0  0  0  0
  -12.2768   15.6000   75.1088 C   0  0  0  0  0  0  0  0  0  0  0  0
   -6.4522   19.3092   67.8826 C   0  0  0  0  0  0  0  0  0  0  0  0
  -12.5808   16.5955   75.6954 O   0  0  0  0  0  0  0  0  0  0  0  0
   -6.3967   20.4087   67.0290 C   0  0  0  0  0  0  0  0  0  0  0  0
   -7.7959   20.6521   66.4856 C   0  0  0  0  0  0  0  0  0  0  0  0
   -8.8566   19.6569   66.6933 C   0  0  0  0  0  0  0  0  0  0  0  0
   -5.2832   21.5881   66.7178 Cl  0  0  0  0  0  0  0  0  0  0  0  0
  -12.0945   14.5172   75.5791 O   0  0  0  0  0  0  0  0  0  0  0  0
  -14.0796   14.9597   72.8104 C   0  0  0  0  0  0  0  0  0  0  0  0
   -4.8590   19.0277   68.3353 C   0  0  0  0  0  0  0  0  0  0  0  0
  1  2  2  0
  1  6  1  0
  1 11  1  0
  2  3  1  0
  3  4  1  0
  3  7  1  0
  4  9  2  0
  4  5  1  0
  5  6  1  0
  5  8  1  0
  6 10  2  0
 11 12  3  0
 16 19  1  0
 19 21  1  0
 22 25  1  0
 19 26  2  0
 17 27  1  0
 20 28  1  0
  8 13  2  0
 13 20  1  0
 20 22  2  0
 22 23  1  0
 23 24  2  0
 24  8  1  0
  7 18  2  0
 18 17  1  0
 17 16  2  0
 16 15  1  0
 15 14  2  0
 14  7  1  0
M  END

$$$$
No_257-gen_results_new/Mpro_initial_molecule_p3/2024-06-19-20-31-25/
     RDKit          3D

 28 30  0  0  0  0  0  0  0  0999 V2000
  -10.3383   15.1532   67.5971 C   0  0  0  0  0  0  0  0  0  0  0  0
  -10.7220   15.1619   68.8301 N   0  0  0  0  0  0  0  0  0  0  0  0
  -10.4044   16.2024   69.6852 N   0  0  0  0  0  0  0  0  0  0  0  0
   -9.7271   17.3221   69.2607 C   0  0  0  0  0  0  0  0  0  0  0  0
   -9.3095   17.3212   67.9557 N   0  0  0  0  0  0  0  0  0  0  0  0
   -9.5450   16.2958   67.0814 C   0  0  0  0  0  0  0  0  0  0  0  0
  -10.8644   16.0907   71.0374 C   0  0  0  0  0  0  0  0  0  0  0  0
   -8.5330   18.4792   67.4604 C   0  0  0  0  0  0  0  0  0  0  0  0
   -9.5433   18.2987   69.9938 O   0  0  0  0  0  0  0  0  0  0  0  0
   -9.1481   16.2876   65.9124 O   0  0  0  0  0  0  0  0  0  0  0  0
  -10.7304   14.0247   66.8209 C   0  0  0  0  0  0  0  0  0  0  0  0
  -11.1003   13.0895   66.2465 N   0  0  0  0  0  0  0  0  0  0  0  0
   -7.0275   18.2876   67.7219 C   0  0  0  0  0  0  0  0  0  0  0  0
  -10.0126   16.3511   72.1395 C   0  0  0  0  0  0  0  0  0  0  0  0
  -10.4883   16.2212   73.4591 C   0  0  0  0  0  0  0  0  0  0  0  0
  -11.8103   15.8022   73.6966 C   0  0  0  0  0  0  0  0  0  0  0  0
  -12.6594   15.5153   72.6113 C   0  0  0  0  0  0  0  0  0  0  0  0
  -12.1896   15.6561   71.2886 C   0  0  0  0  0  0  0  0  0  0  0  0
  -12.3486   15.5799   75.3255 Cl  0  0  0  0  0  0  0  0  0  0  0  0
   -6.4523   19.3079   67.8835 C   0  0  0  0  0  0  0  0  0  0  0  0
   -6.2032   19.5449   69.0280 C   0  0  0  0  0  0  0  0  0  0  0  0
   -6.0663   18.7976   69.9396 C   0  0  0  0  0  0  0  0  0  0  0  0
   -6.0787   18.8589   71.4427 C   0  0  0  0  0  0  0  0  0  0  0  0
   -6.4376   19.7548   72.0682 N   0  0  0  0  0  0  0  0  0  0  0  0
   -5.7839   17.6264   72.0587 N   0  0  0  0  0  0  0  0  0  0  0  0
   -5.8180   16.4877   71.6482 C   0  0  0  0  0  0  0  0  0  0  0  0
   -5.8828   16.2127   70.1936 C   0  0  0  0  0  0  0  0  0  0  0  0
   -6.0309   17.4012   69.3875 C   0  0  0  0  0  0  0  0  0  0  0  0
  1  2  2  0
  1  6  1  0
  1 11  1  0
  2  3  1  0
  3  4  1  0
  3  7  1  0
  4  9  2  0
  4  5  1  0
  5  6  1  0
  5  8  1  0
  6 10  2  0
  8 13  1  0
 11 12  3  0
 16 19  1  0
 13 20  1  0
 20 21  1  0
 23 24  1  0
 21 22  1  0
 22 23  2  0
 23 25  1  0
 25 26  2  0
 26 27  1  0
 27 28  2  0
 28 22  1  0
  7 18  2  0
 18 17  1  0
 17 16  2  0
 16 15  1  0
 15 14  2  0
 14  7  1  0
M  END

$$$$
No_258-gen_results_new/Mpro_initial_molecule_p3/2024-06-19-20-31-25/
     RDKit          3D

 28 30  0  0  0  0  0  0  0  0999 V2000
  -10.3383   15.1532   67.5971 C   0  0  0  0  0  0  0  0  0  0  0  0
  -10.7220   15.1619   68.8301 N   0  0  0  0  0  0  0  0  0  0  0  0
  -10.4044   16.2024   69.6852 N   0  0  0  0  0  0  0  0  0  0  0  0
   -9.7271   17.3221   69.2607 C   0  0  0  0  0  0  0  0  0  0  0  0
   -9.3095   17.3212   67.9557 N   0  0  0  0  0  0  0  0  0  0  0  0
   -9.5450   16.2958   67.0814 C   0  0  0  0  0  0  0  0  0  0  0  0
  -10.8644   16.0907   71.0374 C   0  0  0  0  0  0  0  0  0  0  0  0
   -8.5330   18.4792   67.4604 C   0  0  0  0  0  0  0  0  0  0  0  0
   -9.5433   18.2987   69.9938 O   0  0  0  0  0  0  0  0  0  0  0  0
   -9.1481   16.2876   65.9124 O   0  0  0  0  0  0  0  0  0  0  0  0
  -10.7304   14.0247   66.8209 C   0  0  0  0  0  0  0  0  0  0  0  0
  -11.1003   13.0895   66.2465 N   0  0  0  0  0  0  0  0  0  0  0  0
   -7.0275   18.2876   67.7219 C   0  0  0  0  0  0  0  0  0  0  0  0
  -10.0126   16.3511   72.1395 C   0  0  0  0  0  0  0  0  0  0  0  0
  -10.4883   16.2212   73.4591 C   0  0  0  0  0  0  0  0  0  0  0  0
  -11.8103   15.8022   73.6966 C   0  0  0  0  0  0  0  0  0  0  0  0
  -12.6594   15.5153   72.6113 C   0  0  0  0  0  0  0  0  0  0  0  0
  -12.1896   15.6561   71.2886 C   0  0  0  0  0  0  0  0  0  0  0  0
  -12.2768   15.6000   75.1088 C   0  0  0  0  0  0  0  0  0  0  0  0
   -6.5341   17.3729   68.3685 C   0  0  0  0  0  0  0  0  0  0  0  0
   -5.1308   17.1882   68.5568 C   0  0  0  0  0  0  0  0  0  0  0  0
   -6.2352   18.5841   66.5228 C   0  0  0  0  0  0  0  0  0  0  0  0
   -4.8738   18.3561   66.5020 C   0  0  0  0  0  0  0  0  0  0  0  0
   -4.3443   17.5536   67.4637 C   0  0  0  0  0  0  0  0  0  0  0  0
  -12.3528   14.5928   75.5998 O   0  0  0  0  0  0  0  0  0  0  0  0
  -12.4570   16.7016   75.7580 O   0  0  0  0  0  0  0  0  0  0  0  0
  -14.0788   14.9556   72.8145 C   0  0  0  0  0  0  0  0  0  0  0  0
   -3.0213   17.2372   67.3895 F   0  0  0  0  0  0  0  0  0  0  0  0
  1  2  2  0
  1  6  1  0
  1 11  1  0
  2  3  1  0
  3  4  1  0
  3  7  1  0
  4  9  2  0
  4  5  1  0
  5  6  1  0
  5  8  1  0
  6 10  2  0
  8 13  1  0
 11 12  3  0
 16 19  1  0
 19 25  2  0
 19 26  1  0
 17 27  1  0
 24 28  1  0
 13 20  2  0
 20 21  1  0
 21 24  2  0
 24 23  1  0
 23 22  2  0
 22 13  1  0
  7 18  2  0
 18 17  1  0
 17 16  2  0
 16 15  1  0
 15 14  2  0
 14  7  1  0
M  END

$$$$
No_259-gen_results_new/Mpro_initial_molecule_p3/2024-06-19-20-31-25/
     RDKit          3D

 28 30  0  0  0  0  0  0  0  0999 V2000
  -10.3383   15.1532   67.5971 C   0  0  0  0  0  0  0  0  0  0  0  0
  -10.7220   15.1619   68.8301 N   0  0  0  0  0  0  0  0  0  0  0  0
  -10.4044   16.2024   69.6852 N   0  0  0  0  0  0  0  0  0  0  0  0
   -9.7271   17.3221   69.2607 C   0  0  0  0  0  0  0  0  0  0  0  0
   -9.3095   17.3212   67.9557 N   0  0  0  0  0  0  0  0  0  0  0  0
   -9.5450   16.2958   67.0814 C   0  0  0  0  0  0  0  0  0  0  0  0
  -10.8644   16.0907   71.0374 C   0  0  0  0  0  0  0  0  0  0  0  0
   -8.5330   18.4792   67.4604 C   0  0  0  0  0  0  0  0  0  0  0  0
   -9.5433   18.2987   69.9938 O   0  0  0  0  0  0  0  0  0  0  0  0
   -9.1481   16.2876   65.9124 O   0  0  0  0  0  0  0  0  0  0  0  0
  -10.7304   14.0247   66.8209 C   0  0  0  0  0  0  0  0  0  0  0  0
  -11.1003   13.0895   66.2465 N   0  0  0  0  0  0  0  0  0  0  0  0
   -7.0275   18.2876   67.7219 C   0  0  0  0  0  0  0  0  0  0  0  0
  -10.0126   16.3511   72.1395 C   0  0  0  0  0  0  0  0  0  0  0  0
  -10.4883   16.2212   73.4591 C   0  0  0  0  0  0  0  0  0  0  0  0
  -11.8103   15.8022   73.6966 C   0  0  0  0  0  0  0  0  0  0  0  0
  -12.6594   15.5153   72.6113 C   0  0  0  0  0  0  0  0  0  0  0  0
  -12.1896   15.6561   71.2886 C   0  0  0  0  0  0  0  0  0  0  0  0
  -12.2768   15.6000   75.1088 C   0  0  0  0  0  0  0  0  0  0  0  0
   -6.5521   17.2992   68.1986 N   0  0  0  0  0  0  0  0  0  0  0  0
  -12.3526   14.5917   75.5989 O   0  0  0  0  0  0  0  0  0  0  0  0
  -12.2018   16.7291   75.8918 N   0  0  0  0  0  0  0  0  0  0  0  0
   -6.0828   19.0884   67.4393 C   0  0  0  0  0  0  0  0  0  0  0  0
   -6.3715   20.4587   66.8108 C   0  0  0  0  0  0  0  0  0  0  0  0
   -7.7905   20.6749   66.5432 C   0  0  0  0  0  0  0  0  0  0  0  0
   -8.7791   19.6949   66.9115 C   0  0  0  0  0  0  0  0  0  0  0  0
   -5.4665   21.3414   66.5885 O   0  0  0  0  0  0  0  0  0  0  0  0
   -4.1510   21.0816   66.5070 C   0  0  0  0  0  0  0  0  0  0  0  0
  1  2  2  0
  1  6  1  0
  1 11  1  0
  2  3  1  0
  3  4  1  0
  3  7  1  0
  4  9  2  0
  4  5  1  0
  5  6  1  0
  5  8  1  0
  6 10  2  0
 11 12  3  0
 16 19  1  0
 19 21  2  0
 19 22  1  0
 24 27  1  0
 27 28  1  0
 20 13  1  0
  8 13  2  0
 13 23  1  0
 23 24  2  0
 24 25  1  0
 25 26  2  0
 26  8  1  0
  7 18  2  0
 18 17  1  0
 17 16  2  0
 16 15  1  0
 15 14  2  0
 14  7  1  0
M  END

$$$$
No_260-gen_results_new/Mpro_initial_molecule_p3/2024-06-19-20-31-25/
     RDKit          3D

 27 29  0  0  0  0  0  0  0  0999 V2000
  -10.3383   15.1532   67.5971 C   0  0  0  0  0  0  0  0  0  0  0  0
  -10.7220   15.1619   68.8301 N   0  0  0  0  0  0  0  0  0  0  0  0
  -10.4044   16.2024   69.6852 N   0  0  0  0  0  0  0  0  0  0  0  0
   -9.7271   17.3221   69.2607 C   0  0  0  0  0  0  0  0  0  0  0  0
   -9.3095   17.3212   67.9557 N   0  0  0  0  0  0  0  0  0  0  0  0
   -9.5450   16.2958   67.0814 C   0  0  0  0  0  0  0  0  0  0  0  0
  -10.8644   16.0907   71.0374 C   0  0  0  0  0  0  0  0  0  0  0  0
   -8.5330   18.4792   67.4604 C   0  0  0  0  0  0  0  0  0  0  0  0
   -9.5433   18.2987   69.9938 O   0  0  0  0  0  0  0  0  0  0  0  0
   -9.1481   16.2876   65.9124 O   0  0  0  0  0  0  0  0  0  0  0  0
  -10.7304   14.0247   66.8209 C   0  0  0  0  0  0  0  0  0  0  0  0
  -11.1003   13.0895   66.2465 N   0  0  0  0  0  0  0  0  0  0  0  0
   -7.0275   18.2876   67.7219 C   0  0  0  0  0  0  0  0  0  0  0  0
  -10.0126   16.3511   72.1395 C   0  0  0  0  0  0  0  0  0  0  0  0
  -10.4883   16.2212   73.4591 C   0  0  0  0  0  0  0  0  0  0  0  0
  -11.8103   15.8022   73.6966 C   0  0  0  0  0  0  0  0  0  0  0  0
  -12.6594   15.5153   72.6113 C   0  0  0  0  0  0  0  0  0  0  0  0
  -12.1896   15.6561   71.2886 C   0  0  0  0  0  0  0  0  0  0  0  0
  -12.2768   15.6000   75.1088 C   0  0  0  0  0  0  0  0  0  0  0  0
   -6.4522   19.3092   67.8826 C   0  0  0  0  0  0  0  0  0  0  0  0
  -12.5808   16.5955   75.6954 O   0  0  0  0  0  0  0  0  0  0  0  0
  -12.1193   14.5206   75.6006 O   0  0  0  0  0  0  0  0  0  0  0  0
   -6.0927   19.5186   69.0821 C   0  0  0  0  0  0  0  0  0  0  0  0
   -5.6304   18.3158   69.7861 C   0  0  0  0  0  0  0  0  0  0  0  0
   -6.2115   17.0342   69.4799 C   0  0  0  0  0  0  0  0  0  0  0  0
   -7.0241   17.0648   68.4112 C   0  0  0  0  0  0  0  0  0  0  0  0
   -6.5177   20.3365   66.9685 O   0  0  0  0  0  0  0  0  0  0  0  0
  1  2  2  0
  1  6  1  0
  1 11  1  0
  2  3  1  0
  3  4  1  0
  3  7  1  0
  4  9  2  0
  4  5  1  0
  5  6  1  0
  5  8  1  0
  6 10  2  0
  8 13  1  0
 11 12  3  0
 16 19  1  0
 19 21  2  0
 19 22  1  0
 20 27  1  0
 13 20  2  0
 20 23  1  0
 23 24  2  0
 24 25  1  0
 25 26  2  0
 26 13  1  0
  7 18  2  0
 18 17  1  0
 17 16  2  0
 16 15  1  0
 15 14  2  0
 14  7  1  0
M  END

$$$$
No_261-gen_results_new/Mpro_initial_molecule_p3/2024-06-19-20-31-25/
     RDKit          3D

 28 30  0  0  0  0  0  0  0  0999 V2000
  -10.3383   15.1532   67.5971 C   0  0  0  0  0  0  0  0  0  0  0  0
  -10.7220   15.1619   68.8301 N   0  0  0  0  0  0  0  0  0  0  0  0
  -10.4044   16.2024   69.6852 N   0  0  0  0  0  0  0  0  0  0  0  0
   -9.7271   17.3221   69.2607 C   0  0  0  0  0  0  0  0  0  0  0  0
   -9.3095   17.3212   67.9557 N   0  0  0  0  0  0  0  0  0  0  0  0
   -9.5450   16.2958   67.0814 C   0  0  0  0  0  0  0  0  0  0  0  0
  -10.8644   16.0907   71.0374 C   0  0  0  0  0  0  0  0  0  0  0  0
   -8.5330   18.4792   67.4604 C   0  0  0  0  0  0  0  0  0  0  0  0
   -9.5433   18.2987   69.9938 O   0  0  0  0  0  0  0  0  0  0  0  0
   -9.1481   16.2876   65.9124 O   0  0  0  0  0  0  0  0  0  0  0  0
  -10.7304   14.0247   66.8209 C   0  0  0  0  0  0  0  0  0  0  0  0
  -11.1003   13.0895   66.2465 N   0  0  0  0  0  0  0  0  0  0  0  0
   -7.0275   18.2876   67.7219 C   0  0  0  0  0  0  0  0  0  0  0  0
  -10.0126   16.3511   72.1395 C   0  0  0  0  0  0  0  0  0  0  0  0
  -10.4883   16.2212   73.4591 C   0  0  0  0  0  0  0  0  0  0  0  0
  -11.8103   15.8022   73.6966 C   0  0  0  0  0  0  0  0  0  0  0  0
  -12.6594   15.5153   72.6113 C   0  0  0  0  0  0  0  0  0  0  0  0
  -12.1896   15.6561   71.2886 C   0  0  0  0  0  0  0  0  0  0  0  0
  -12.2484   15.6088   75.0145 O   0  0  0  0  0  0  0  0  0  0  0  0
   -6.3059   19.3591   66.9155 C   0  0  0  0  0  0  0  0  0  0  0  0
   -4.9923   19.4463   66.9703 C   0  0  0  0  0  0  0  0  0  0  0  0
   -4.2907   20.4330   66.2898 C   0  0  0  0  0  0  0  0  0  0  0  0
   -4.9709   21.5154   65.8584 C   0  0  0  0  0  0  0  0  0  0  0  0
   -6.3875   21.4522   65.7832 C   0  0  0  0  0  0  0  0  0  0  0  0
   -7.0587   20.4371   66.3781 C   0  0  0  0  0  0  0  0  0  0  0  0
   -4.2108   22.5415   65.2151 O   0  0  0  0  0  0  0  0  0  0  0  0
  -12.3386   16.7900   75.7237 C   0  0  0  0  0  0  0  0  0  0  0  0
  -14.0716   14.8957   72.8095 C   0  0  0  0  0  0  0  0  0  0  0  0
  1  2  2  0
  1  6  1  0
  1 11  1  0
  2  3  1  0
  3  4  1  0
  3  7  1  0
  4  9  2  0
  4  5  1  0
  5  6  1  0
  5  8  1  0
  6 10  2  0
  8 13  1  0
 11 12  3  0
 16 19  1  0
 13 20  1  0
 23 26  1  0
 19 27  1  0
 17 28  1  0
 20 21  2  0
 21 22  1  0
 22 23  2  0
 23 24  1  0
 24 25  2  0
 25 20  1  0
  7 18  2  0
 18 17  1  0
 17 16  2  0
 16 15  1  0
 15 14  2  0
 14  7  1  0
M  END

$$$$
No_262-gen_results_new/Mpro_initial_molecule_p3/2024-06-19-20-31-25/
     RDKit          3D

 25 27  0  0  0  0  0  0  0  0999 V2000
  -10.3383   15.1532   67.5971 C   0  0  0  0  0  0  0  0  0  0  0  0
  -10.7220   15.1619   68.8301 N   0  0  0  0  0  0  0  0  0  0  0  0
  -10.4044   16.2024   69.6852 N   0  0  0  0  0  0  0  0  0  0  0  0
   -9.7271   17.3221   69.2607 C   0  0  0  0  0  0  0  0  0  0  0  0
   -9.3095   17.3212   67.9557 N   0  0  0  0  0  0  0  0  0  0  0  0
   -9.5450   16.2958   67.0814 C   0  0  0  0  0  0  0  0  0  0  0  0
  -10.8644   16.0907   71.0374 C   0  0  0  0  0  0  0  0  0  0  0  0
   -8.5330   18.4792   67.4604 C   0  0  0  0  0  0  0  0  0  0  0  0
   -9.5433   18.2987   69.9938 O   0  0  0  0  0  0  0  0  0  0  0  0
   -9.1481   16.2876   65.9124 O   0  0  0  0  0  0  0  0  0  0  0  0
  -10.7304   14.0247   66.8209 C   0  0  0  0  0  0  0  0  0  0  0  0
  -11.1003   13.0895   66.2465 N   0  0  0  0  0  0  0  0  0  0  0  0
   -7.0275   18.2876   67.7219 C   0  0  0  0  0  0  0  0  0  0  0  0
  -10.0126   16.3511   72.1395 C   0  0  0  0  0  0  0  0  0  0  0  0
  -10.4883   16.2212   73.4591 C   0  0  0  0  0  0  0  0  0  0  0  0
  -11.8103   15.8022   73.6966 C   0  0  0  0  0  0  0  0  0  0  0  0
  -12.6594   15.5153   72.6113 C   0  0  0  0  0  0  0  0  0  0  0  0
  -12.1896   15.6561   71.2886 C   0  0  0  0  0  0  0  0  0  0  0  0
  -12.3486   15.5799   75.3255 Cl  0  0  0  0  0  0  0  0  0  0  0  0
   -6.4523   19.3079   67.8835 C   0  0  0  0  0  0  0  0  0  0  0  0
   -6.2032   19.5449   69.0280 C   0  0  0  0  0  0  0  0  0  0  0  0
   -5.6840   18.3857   69.7844 C   0  0  0  0  0  0  0  0  0  0  0  0
   -5.3861   17.4328   69.5032 C   0  0  0  0  0  0  0  0  0  0  0  0
   -6.7079   17.0176   68.4167 C   0  0  0  0  0  0  0  0  0  0  0  0
   -6.3758   20.2782   66.7894 C   0  0  0  0  0  0  0  0  0  0  0  0
  1  2  2  0
  1  6  1  0
  1 11  1  0
  2  3  1  0
  3  4  1  0
  3  7  1  0
  4  9  2  0
  4  5  1  0
  5  6  1  0
  5  8  1  0
  6 10  2  0
  8 13  1  0
 11 12  3  0
 16 19  1  0
 20 25  1  0
 13 20  2  0
 20 21  1  0
 21 22  2  0
 22 23  1  0
 23 24  2  0
 24 13  1  0
  7 18  2  0
 18 17  1  0
 17 16  2  0
 16 15  1  0
 15 14  2  0
 14  7  1  0
M  END

$$$$
No_263-gen_results_new/Mpro_initial_molecule_p3/2024-06-19-20-31-25/
     RDKit          3D

 28 30  0  0  0  0  0  0  0  0999 V2000
  -10.3383   15.1532   67.5971 C   0  0  0  0  0  0  0  0  0  0  0  0
  -10.7220   15.1619   68.8301 N   0  0  0  0  0  0  0  0  0  0  0  0
  -10.4044   16.2024   69.6852 N   0  0  0  0  0  0  0  0  0  0  0  0
   -9.7271   17.3221   69.2607 C   0  0  0  0  0  0  0  0  0  0  0  0
   -9.3095   17.3212   67.9557 N   0  0  0  0  0  0  0  0  0  0  0  0
   -9.5450   16.2958   67.0814 C   0  0  0  0  0  0  0  0  0  0  0  0
  -10.8644   16.0907   71.0374 C   0  0  0  0  0  0  0  0  0  0  0  0
   -8.5330   18.4792   67.4604 C   0  0  0  0  0  0  0  0  0  0  0  0
   -9.5433   18.2987   69.9938 O   0  0  0  0  0  0  0  0  0  0  0  0
   -9.1481   16.2876   65.9124 O   0  0  0  0  0  0  0  0  0  0  0  0
  -10.7304   14.0247   66.8209 C   0  0  0  0  0  0  0  0  0  0  0  0
  -11.1003   13.0895   66.2465 N   0  0  0  0  0  0  0  0  0  0  0  0
   -7.0275   18.2876   67.7219 C   0  0  0  0  0  0  0  0  0  0  0  0
  -10.0126   16.3511   72.1395 C   0  0  0  0  0  0  0  0  0  0  0  0
  -10.4883   16.2212   73.4591 C   0  0  0  0  0  0  0  0  0  0  0  0
  -11.8103   15.8022   73.6966 C   0  0  0  0  0  0  0  0  0  0  0  0
  -12.6594   15.5153   72.6113 C   0  0  0  0  0  0  0  0  0  0  0  0
  -12.1896   15.6561   71.2886 C   0  0  0  0  0  0  0  0  0  0  0  0
  -12.3486   15.5799   75.3255 Cl  0  0  0  0  0  0  0  0  0  0  0  0
   -6.5344   17.3734   68.3696 C   0  0  0  0  0  0  0  0  0  0  0  0
   -5.1249   17.1828   68.5820 C   0  0  0  0  0  0  0  0  0  0  0  0
   -4.4394   18.0509   67.8370 C   0  0  0  0  0  0  0  0  0  0  0  0
   -4.8688   19.0467   67.0682 C   0  0  0  0  0  0  0  0  0  0  0  0
   -6.2626   19.1636   66.9253 C   0  0  0  0  0  0  0  0  0  0  0  0
  -14.1198   14.9540   72.8037 C   0  0  0  0  0  0  0  0  0  0  0  0
   -3.9998   19.9982   66.3257 C   0  0  0  0  0  0  0  0  0  0  0  0
   -3.8569   20.0199   65.2687 O   0  0  0  0  0  0  0  0  0  0  0  0
   -3.7940   21.1260   67.0596 O   0  0  0  0  0  0  0  0  0  0  0  0
  1  2  2  0
  1  6  1  0
  1 11  1  0
  2  3  1  0
  3  4  1  0
  3  7  1  0
  4  9  2  0
  4  5  1  0
  5  6  1  0
  5  8  1  0
  6 10  2  0
  8 13  1  0
 11 12  3  0
 16 19  1  0
 17 25  1  0
 23 26  1  0
 26 27  2  0
 26 28  1  0
 13 20  2  0
 20 21  1  0
 21 22  2  0
 22 23  1  0
 23 24  2  0
 24 13  1  0
  7 18  2  0
 18 17  1  0
 17 16  2  0
 16 15  1  0
 15 14  2  0
 14  7  1  0
M  END

$$$$
No_264-gen_results_new/Mpro_initial_molecule_p3/2024-06-19-20-31-25/
     RDKit          3D

 26 28  0  0  0  0  0  0  0  0999 V2000
  -10.3383   15.1532   67.5971 C   0  0  0  0  0  0  0  0  0  0  0  0
  -10.7220   15.1619   68.8301 N   0  0  0  0  0  0  0  0  0  0  0  0
  -10.4044   16.2024   69.6852 N   0  0  0  0  0  0  0  0  0  0  0  0
   -9.7271   17.3221   69.2607 C   0  0  0  0  0  0  0  0  0  0  0  0
   -9.3095   17.3212   67.9557 N   0  0  0  0  0  0  0  0  0  0  0  0
   -9.5450   16.2958   67.0814 C   0  0  0  0  0  0  0  0  0  0  0  0
  -10.8644   16.0907   71.0374 C   0  0  0  0  0  0  0  0  0  0  0  0
   -8.5330   18.4792   67.4604 C   0  0  0  0  0  0  0  0  0  0  0  0
   -9.5433   18.2987   69.9938 O   0  0  0  0  0  0  0  0  0  0  0  0
   -9.1481   16.2876   65.9124 O   0  0  0  0  0  0  0  0  0  0  0  0
  -10.7304   14.0247   66.8209 C   0  0  0  0  0  0  0  0  0  0  0  0
  -11.1003   13.0895   66.2465 N   0  0  0  0  0  0  0  0  0  0  0  0
   -7.0275   18.2876   67.7219 C   0  0  0  0  0  0  0  0  0  0  0  0
  -10.0126   16.3511   72.1395 C   0  0  0  0  0  0  0  0  0  0  0  0
  -10.4883   16.2212   73.4591 C   0  0  0  0  0  0  0  0  0  0  0  0
  -11.8103   15.8022   73.6966 C   0  0  0  0  0  0  0  0  0  0  0  0
  -12.6594   15.5153   72.6113 C   0  0  0  0  0  0  0  0  0  0  0  0
  -12.1896   15.6561   71.2886 C   0  0  0  0  0  0  0  0  0  0  0  0
  -12.2768   15.6000   75.1088 C   0  0  0  0  0  0  0  0  0  0  0  0
   -6.5341   17.3729   68.3685 C   0  0  0  0  0  0  0  0  0  0  0  0
   -5.1249   17.1827   68.5818 C   0  0  0  0  0  0  0  0  0  0  0  0
   -4.4393   18.0516   67.8378 C   0  0  0  0  0  0  0  0  0  0  0  0
   -4.8689   19.0478   67.0695 C   0  0  0  0  0  0  0  0  0  0  0  0
   -6.2627   19.1643   66.9261 C   0  0  0  0  0  0  0  0  0  0  0  0
  -12.6572   14.5401   75.4421 F   0  0  0  0  0  0  0  0  0  0  0  0
  -12.1401   16.4562   75.8291 F   0  0  0  0  0  0  0  0  0  0  0  0
  1  2  2  0
  1  6  1  0
  1 11  1  0
  2  3  1  0
  3  4  1  0
  3  7  1  0
  4  9  2  0
  4  5  1  0
  5  6  1  0
  5  8  1  0
  6 10  2  0
  8 13  1  0
 11 12  3  0
 16 19  1  0
 19 25  1  0
 19 26  1  0
 13 20  2  0
 20 21  1  0
 21 22  2  0
 22 23  1  0
 23 24  2  0
 24 13  1  0
  7 18  2  0
 18 17  1  0
 17 16  2  0
 16 15  1  0
 15 14  2  0
 14  7  1  0
M  END

$$$$
No_265-gen_results_new/Mpro_initial_molecule_p3/2024-06-19-20-31-25/
     RDKit          3D

 28 30  0  0  0  0  0  0  0  0999 V2000
  -10.3383   15.1532   67.5971 C   0  0  0  0  0  0  0  0  0  0  0  0
  -10.7220   15.1619   68.8301 N   0  0  0  0  0  0  0  0  0  0  0  0
  -10.4044   16.2024   69.6852 N   0  0  0  0  0  0  0  0  0  0  0  0
   -9.7271   17.3221   69.2607 C   0  0  0  0  0  0  0  0  0  0  0  0
   -9.3095   17.3212   67.9557 N   0  0  0  0  0  0  0  0  0  0  0  0
   -9.5450   16.2958   67.0814 C   0  0  0  0  0  0  0  0  0  0  0  0
  -10.8644   16.0907   71.0374 C   0  0  0  0  0  0  0  0  0  0  0  0
   -8.5330   18.4792   67.4604 C   0  0  0  0  0  0  0  0  0  0  0  0
   -9.5433   18.2987   69.9938 O   0  0  0  0  0  0  0  0  0  0  0  0
   -9.1481   16.2876   65.9124 O   0  0  0  0  0  0  0  0  0  0  0  0
  -10.7304   14.0247   66.8209 C   0  0  0  0  0  0  0  0  0  0  0  0
  -11.1003   13.0895   66.2465 N   0  0  0  0  0  0  0  0  0  0  0  0
   -7.0275   18.2876   67.7219 C   0  0  0  0  0  0  0  0  0  0  0  0
  -10.0126   16.3511   72.1395 C   0  0  0  0  0  0  0  0  0  0  0  0
  -10.4883   16.2212   73.4591 C   0  0  0  0  0  0  0  0  0  0  0  0
  -11.8103   15.8022   73.6966 C   0  0  0  0  0  0  0  0  0  0  0  0
  -12.6594   15.5153   72.6113 C   0  0  0  0  0  0  0  0  0  0  0  0
  -12.1896   15.6561   71.2886 C   0  0  0  0  0  0  0  0  0  0  0  0
  -12.2768   15.6000   75.1088 C   0  0  0  0  0  0  0  0  0  0  0  0
   -6.4522   19.3092   67.8826 C   0  0  0  0  0  0  0  0  0  0  0  0
  -12.3537   14.5923   75.5994 O   0  0  0  0  0  0  0  0  0  0  0  0
  -12.4205   16.7483   75.8013 N   0  0  0  0  0  0  0  0  0  0  0  0
   -6.3700   20.4051   67.0253 C   0  0  0  0  0  0  0  0  0  0  0  0
   -5.2154   21.2045   66.8529 C   0  0  0  0  0  0  0  0  0  0  0  0
   -4.2849   21.1382   67.9162 C   0  0  0  0  0  0  0  0  0  0  0  0
   -4.2361   19.9878   68.8372 C   0  0  0  0  0  0  0  0  0  0  0  0
   -5.2976   19.1124   68.8562 C   0  0  0  0  0  0  0  0  0  0  0  0
   -3.2093   19.9080   69.8107 N   0  0  0  0  0  0  0  0  0  0  0  0
  1  2  2  0
  1  6  1  0
  1 11  1  0
  2  3  1  0
  3  4  1  0
  3  7  1  0
  4  9  2  0
  4  5  1  0
  5  6  1  0
  5  8  1  0
  6 10  2  0
  8 13  1  0
 11 12  3  0
 16 19  1  0
 13 20  1  0
 19 21  2  0
 19 22  1  0
 26 28  1  0
 20 23  2  0
 23 24  1  0
 24 25  2  0
 25 26  1  0
 26 27  2  0
 27 20  1  0
  7 18  2  0
 18 17  1  0
 17 16  2  0
 16 15  1  0
 15 14  2  0
 14  7  1  0
M  END

$$$$
No_266-gen_results_new/Mpro_initial_molecule_p3/2024-06-19-20-31-25/
     RDKit          3D

 28 30  0  0  0  0  0  0  0  0999 V2000
  -10.3383   15.1532   67.5971 C   0  0  0  0  0  0  0  0  0  0  0  0
  -10.7220   15.1619   68.8301 N   0  0  0  0  0  0  0  0  0  0  0  0
  -10.4044   16.2024   69.6852 N   0  0  0  0  0  0  0  0  0  0  0  0
   -9.7271   17.3221   69.2607 C   0  0  0  0  0  0  0  0  0  0  0  0
   -9.3095   17.3212   67.9557 N   0  0  0  0  0  0  0  0  0  0  0  0
   -9.5450   16.2958   67.0814 C   0  0  0  0  0  0  0  0  0  0  0  0
  -10.8644   16.0907   71.0374 C   0  0  0  0  0  0  0  0  0  0  0  0
   -8.5330   18.4792   67.4604 C   0  0  0  0  0  0  0  0  0  0  0  0
   -9.5433   18.2987   69.9938 O   0  0  0  0  0  0  0  0  0  0  0  0
   -9.1481   16.2876   65.9124 O   0  0  0  0  0  0  0  0  0  0  0  0
  -10.7304   14.0247   66.8209 C   0  0  0  0  0  0  0  0  0  0  0  0
  -11.1003   13.0895   66.2465 N   0  0  0  0  0  0  0  0  0  0  0  0
   -7.0275   18.2876   67.7219 C   0  0  0  0  0  0  0  0  0  0  0  0
  -10.0126   16.3511   72.1395 C   0  0  0  0  0  0  0  0  0  0  0  0
  -10.4883   16.2212   73.4591 C   0  0  0  0  0  0  0  0  0  0  0  0
  -11.8103   15.8022   73.6966 C   0  0  0  0  0  0  0  0  0  0  0  0
  -12.6594   15.5153   72.6113 C   0  0  0  0  0  0  0  0  0  0  0  0
  -12.1896   15.6561   71.2886 C   0  0  0  0  0  0  0  0  0  0  0  0
  -12.2484   15.6088   75.0145 O   0  0  0  0  0  0  0  0  0  0  0  0
   -6.3059   19.3591   66.9155 C   0  0  0  0  0  0  0  0  0  0  0  0
   -4.9923   19.4463   66.9703 C   0  0  0  0  0  0  0  0  0  0  0  0
   -4.2717   18.3411   67.6555 C   0  0  0  0  0  0  0  0  0  0  0  0
   -5.0436   17.2562   68.3053 C   0  0  0  0  0  0  0  0  0  0  0  0
   -6.4249   17.2341   68.1852 C   0  0  0  0  0  0  0  0  0  0  0  0
  -12.3382   16.7917   75.7213 C   0  0  0  0  0  0  0  0  0  0  0  0
   -4.2628   20.3570   66.4203 N   0  0  0  0  0  0  0  0  0  0  0  0
   -2.9172   20.4032   66.5417 C   0  0  0  0  0  0  0  0  0  0  0  0
   -4.8683   21.5271   65.7143 C   0  0  0  0  0  0  0  0  0  0  0  0
  1  2  2  0
  1  6  1  0
  1 11  1  0
  2  3  1  0
  3  4  1  0
  3  7  1  0
  4  9  2  0
  4  5  1  0
  5  6  1  0
  5  8  1  0
  6 10  2  0
  8 13  1  0
 11 12  3  0
 16 19  1  0
 19 25  1  0
 21 26  1  0
 26 27  1  0
 26 28  1  0
 13 20  2  0
 20 21  1  0
 21 22  2  0
 22 23  1  0
 23 24  2  0
 24 13  1  0
  7 18  2  0
 18 17  1  0
 17 16  2  0
 16 15  1  0
 15 14  2  0
 14  7  1  0
M  END

$$$$
No_267-gen_results_new/Mpro_initial_molecule_p3/2024-06-19-20-31-25/
     RDKit          3D

 28 30  0  0  0  0  0  0  0  0999 V2000
  -10.3383   15.1532   67.5971 C   0  0  0  0  0  0  0  0  0  0  0  0
  -10.7220   15.1619   68.8301 N   0  0  0  0  0  0  0  0  0  0  0  0
  -10.4044   16.2024   69.6852 N   0  0  0  0  0  0  0  0  0  0  0  0
   -9.7271   17.3221   69.2607 C   0  0  0  0  0  0  0  0  0  0  0  0
   -9.3095   17.3212   67.9557 N   0  0  0  0  0  0  0  0  0  0  0  0
   -9.5450   16.2958   67.0814 C   0  0  0  0  0  0  0  0  0  0  0  0
  -10.8644   16.0907   71.0374 C   0  0  0  0  0  0  0  0  0  0  0  0
   -8.5330   18.4792   67.4604 C   0  0  0  0  0  0  0  0  0  0  0  0
   -9.5433   18.2987   69.9938 O   0  0  0  0  0  0  0  0  0  0  0  0
   -9.1481   16.2876   65.9124 O   0  0  0  0  0  0  0  0  0  0  0  0
  -10.7304   14.0247   66.8209 C   0  0  0  0  0  0  0  0  0  0  0  0
  -11.1003   13.0895   66.2465 N   0  0  0  0  0  0  0  0  0  0  0  0
   -7.0275   18.2876   67.7219 C   0  0  0  0  0  0  0  0  0  0  0  0
  -10.0126   16.3511   72.1395 C   0  0  0  0  0  0  0  0  0  0  0  0
  -10.4883   16.2212   73.4591 C   0  0  0  0  0  0  0  0  0  0  0  0
  -11.8103   15.8022   73.6966 C   0  0  0  0  0  0  0  0  0  0  0  0
  -12.6594   15.5153   72.6113 C   0  0  0  0  0  0  0  0  0  0  0  0
  -12.1896   15.6561   71.2886 C   0  0  0  0  0  0  0  0  0  0  0  0
  -12.2768   15.6000   75.1088 C   0  0  0  0  0  0  0  0  0  0  0  0
   -6.5341   17.3729   68.3685 C   0  0  0  0  0  0  0  0  0  0  0  0
   -5.0715   17.5390   68.5416 C   0  0  0  0  0  0  0  0  0  0  0  0
   -4.2817   18.2416   67.7594 C   0  0  0  0  0  0  0  0  0  0  0  0
   -4.9171   19.1696   66.9510 C   0  0  0  0  0  0  0  0  0  0  0  0
   -6.3135   19.1610   66.8064 C   0  0  0  0  0  0  0  0  0  0  0  0
  -12.3526   14.5927   75.5997 O   0  0  0  0  0  0  0  0  0  0  0  0
  -12.4212   16.7486   75.8004 N   0  0  0  0  0  0  0  0  0  0  0  0
  -14.3055   14.8837   72.8626 Cl  0  0  0  0  0  0  0  0  0  0  0  0
   -4.1506   20.0272   66.1820 N   0  0  0  0  0  0  0  0  0  0  0  0
  1  2  2  0
  1  6  1  0
  1 11  1  0
  2  3  1  0
  3  4  1  0
  3  7  1  0
  4  9  2  0
  4  5  1  0
  5  6  1  0
  5  8  1  0
  6 10  2  0
  8 13  1  0
 11 12  3  0
 16 19  1  0
 19 25  2  0
 19 26  1  0
 17 27  1  0
 23 28  1  0
 13 20  2  0
 20 21  1  0
 21 22  2  0
 22 23  1  0
 23 24  2  0
 24 13  1  0
  7 18  2  0
 18 17  1  0
 17 16  2  0
 16 15  1  0
 15 14  2  0
 14  7  1  0
M  END

$$$$
No_268-gen_results_new/Mpro_initial_molecule_p3/2024-06-19-20-31-25/
     RDKit          3D

 28 30  0  0  0  0  0  0  0  0999 V2000
  -10.3383   15.1532   67.5971 C   0  0  0  0  0  0  0  0  0  0  0  0
  -10.7220   15.1619   68.8301 N   0  0  0  0  0  0  0  0  0  0  0  0
  -10.4044   16.2024   69.6852 N   0  0  0  0  0  0  0  0  0  0  0  0
   -9.7271   17.3221   69.2607 C   0  0  0  0  0  0  0  0  0  0  0  0
   -9.3095   17.3212   67.9557 N   0  0  0  0  0  0  0  0  0  0  0  0
   -9.5450   16.2958   67.0814 C   0  0  0  0  0  0  0  0  0  0  0  0
  -10.8644   16.0907   71.0374 C   0  0  0  0  0  0  0  0  0  0  0  0
   -8.5330   18.4792   67.4604 C   0  0  0  0  0  0  0  0  0  0  0  0
   -9.5433   18.2987   69.9938 O   0  0  0  0  0  0  0  0  0  0  0  0
   -9.1481   16.2876   65.9124 O   0  0  0  0  0  0  0  0  0  0  0  0
  -10.7304   14.0247   66.8209 C   0  0  0  0  0  0  0  0  0  0  0  0
  -11.1003   13.0895   66.2465 N   0  0  0  0  0  0  0  0  0  0  0  0
   -7.0275   18.2876   67.7219 C   0  0  0  0  0  0  0  0  0  0  0  0
  -10.0126   16.3511   72.1395 C   0  0  0  0  0  0  0  0  0  0  0  0
  -10.4883   16.2212   73.4591 C   0  0  0  0  0  0  0  0  0  0  0  0
  -11.8103   15.8022   73.6966 C   0  0  0  0  0  0  0  0  0  0  0  0
  -12.6594   15.5153   72.6113 C   0  0  0  0  0  0  0  0  0  0  0  0
  -12.1896   15.6561   71.2886 C   0  0  0  0  0  0  0  0  0  0  0  0
  -12.2768   15.6000   75.1088 C   0  0  0  0  0  0  0  0  0  0  0  0
   -6.5341   17.3729   68.3685 C   0  0  0  0  0  0  0  0  0  0  0  0
   -5.1249   17.1827   68.5818 C   0  0  0  0  0  0  0  0  0  0  0  0
   -4.5636   16.2596   69.3577 C   0  0  0  0  0  0  0  0  0  0  0  0
   -3.2067   15.9793   69.3360 C   0  0  0  0  0  0  0  0  0  0  0  0
   -2.4019   16.7011   68.4913 C   0  0  0  0  0  0  0  0  0  0  0  0
   -4.2601   17.8294   67.6644 C   0  0  0  0  0  0  0  0  0  0  0  0
   -2.9177   17.5635   67.5913 C   0  0  0  0  0  0  0  0  0  0  0  0
  -12.3533   14.5930   75.5994 O   0  0  0  0  0  0  0  0  0  0  0  0
  -12.4558   16.7019   75.7580 O   0  0  0  0  0  0  0  0  0  0  0  0
  1  2  2  0
  1  6  1  0
  1 11  1  0
  2  3  1  0
  3  4  1  0
  3  7  1  0
  4  9  2  0
  4  5  1  0
  5  6  1  0
  5  8  1  0
  6 10  2  0
  8 13  1  0
 11 12  3  0
 16 19  1  0
 13 20  2  3
 20 21  1  0
 19 27  2  0
 19 28  1  0
 21 22  2  0
 22 23  1  0
 23 24  2  0
 24 26  1  0
 26 25  2  0
 25 21  1  0
  7 18  2  0
 18 17  1  0
 17 16  2  0
 16 15  1  0
 15 14  2  0
 14  7  1  0
M  END

$$$$
No_269-gen_results_new/Mpro_initial_molecule_p3/2024-06-19-20-31-25/
     RDKit          3D

 27 29  0  0  0  0  0  0  0  0999 V2000
  -10.3383   15.1532   67.5971 C   0  0  0  0  0  0  0  0  0  0  0  0
  -10.7220   15.1619   68.8301 N   0  0  0  0  0  0  0  0  0  0  0  0
  -10.4044   16.2024   69.6852 N   0  0  0  0  0  0  0  0  0  0  0  0
   -9.7271   17.3221   69.2607 C   0  0  0  0  0  0  0  0  0  0  0  0
   -9.3095   17.3212   67.9557 N   0  0  0  0  0  0  0  0  0  0  0  0
   -9.5450   16.2958   67.0814 C   0  0  0  0  0  0  0  0  0  0  0  0
  -10.8644   16.0907   71.0374 C   0  0  0  0  0  0  0  0  0  0  0  0
   -8.5330   18.4792   67.4604 C   0  0  0  0  0  0  0  0  0  0  0  0
   -9.5433   18.2987   69.9938 O   0  0  0  0  0  0  0  0  0  0  0  0
   -9.1481   16.2876   65.9124 O   0  0  0  0  0  0  0  0  0  0  0  0
  -10.7304   14.0247   66.8209 C   0  0  0  0  0  0  0  0  0  0  0  0
  -11.1003   13.0895   66.2465 N   0  0  0  0  0  0  0  0  0  0  0  0
   -7.0275   18.2876   67.7219 C   0  0  0  0  0  0  0  0  0  0  0  0
  -10.0126   16.3511   72.1395 C   0  0  0  0  0  0  0  0  0  0  0  0
  -10.4883   16.2212   73.4591 C   0  0  0  0  0  0  0  0  0  0  0  0
  -11.8103   15.8022   73.6966 C   0  0  0  0  0  0  0  0  0  0  0  0
  -12.6594   15.5153   72.6113 C   0  0  0  0  0  0  0  0  0  0  0  0
  -12.1896   15.6561   71.2886 C   0  0  0  0  0  0  0  0  0  0  0  0
  -12.3486   15.5799   75.3255 Cl  0  0  0  0  0  0  0  0  0  0  0  0
   -6.5344   17.3734   68.3696 C   0  0  0  0  0  0  0  0  0  0  0  0
   -5.1249   17.1828   68.5820 C   0  0  0  0  0  0  0  0  0  0  0  0
   -4.5638   16.2600   69.3585 C   0  0  0  0  0  0  0  0  0  0  0  0
   -5.3625   15.4101   70.1883 C   0  0  0  0  0  0  0  0  0  0  0  0
   -6.8138   15.6428   70.2147 C   0  0  0  0  0  0  0  0  0  0  0  0
   -7.5930   14.8146   71.1530 C   0  0  0  0  0  0  0  0  0  0  0  0
   -7.3697   16.5132   69.3485 C   0  0  0  0  0  0  0  0  0  0  0  0
   -8.4846   16.8333   69.2812 O   0  0  0  0  0  0  0  0  0  0  0  0
  1  2  2  0
  1  6  1  0
  1 11  1  0
  2  3  1  0
  3  4  1  0
  3  7  1  0
  4  9  2  0
  4  5  1  0
  5  6  1  0
  5  8  1  0
  6 10  2  0
  8 13  1  0
 11 12  3  0
 16 19  1  0
 24 25  1  0
 26 27  1  0
 13 20  1  0
  7 18  2  0
 18 17  1  0
 17 16  2  0
 16 15  1  0
 15 14  2  0
 14  7  1  0
 20 21  2  0
 21 22  1  0
 22 23  2  0
 23 24  1  0
 24 26  2  0
 26 20  1  0
M  END

$$$$
No_270-gen_results_new/Mpro_initial_molecule_p3/2024-06-19-20-31-25/
     RDKit          3D

 28 30  0  0  0  0  0  0  0  0999 V2000
  -10.3383   15.1532   67.5971 C   0  0  0  0  0  0  0  0  0  0  0  0
  -10.7220   15.1619   68.8301 N   0  0  0  0  0  0  0  0  0  0  0  0
  -10.4044   16.2024   69.6852 N   0  0  0  0  0  0  0  0  0  0  0  0
   -9.7271   17.3221   69.2607 C   0  0  0  0  0  0  0  0  0  0  0  0
   -9.3095   17.3212   67.9557 N   0  0  0  0  0  0  0  0  0  0  0  0
   -9.5450   16.2958   67.0814 C   0  0  0  0  0  0  0  0  0  0  0  0
  -10.8644   16.0907   71.0374 C   0  0  0  0  0  0  0  0  0  0  0  0
   -8.5330   18.4792   67.4604 C   0  0  0  0  0  0  0  0  0  0  0  0
   -9.5433   18.2987   69.9938 O   0  0  0  0  0  0  0  0  0  0  0  0
   -9.1481   16.2876   65.9124 O   0  0  0  0  0  0  0  0  0  0  0  0
  -10.7304   14.0247   66.8209 C   0  0  0  0  0  0  0  0  0  0  0  0
  -11.1003   13.0895   66.2465 N   0  0  0  0  0  0  0  0  0  0  0  0
   -7.0275   18.2876   67.7219 C   0  0  0  0  0  0  0  0  0  0  0  0
  -10.0126   16.3511   72.1395 C   0  0  0  0  0  0  0  0  0  0  0  0
  -10.4883   16.2212   73.4591 C   0  0  0  0  0  0  0  0  0  0  0  0
  -11.8103   15.8022   73.6966 C   0  0  0  0  0  0  0  0  0  0  0  0
  -12.6594   15.5153   72.6113 C   0  0  0  0  0  0  0  0  0  0  0  0
  -12.1896   15.6561   71.2886 C   0  0  0  0  0  0  0  0  0  0  0  0
  -12.2484   15.6088   75.0145 O   0  0  0  0  0  0  0  0  0  0  0  0
   -6.5341   17.3731   68.3686 C   0  0  0  0  0  0  0  0  0  0  0  0
   -5.1307   17.1884   68.5569 C   0  0  0  0  0  0  0  0  0  0  0  0
   -6.2283   19.1886   66.9090 C   0  0  0  0  0  0  0  0  0  0  0  0
   -4.8273   19.0035   67.0389 C   0  0  0  0  0  0  0  0  0  0  0  0
   -4.3060   18.0196   67.7978 C   0  0  0  0  0  0  0  0  0  0  0  0
  -12.3371   16.7921   75.7211 C   0  0  0  0  0  0  0  0  0  0  0  0
  -13.9746   14.9543   72.7923 O   0  0  0  0  0  0  0  0  0  0  0  0
   -6.8563   20.2664   66.0650 C   0  0  0  0  0  0  0  0  0  0  0  0
   -6.0421   20.8647   65.2499 N   0  0  0  0  0  0  0  0  0  0  0  0
  1  2  2  0
  1  6  1  0
  1 11  1  0
  2  3  1  0
  3  4  1  0
  3  7  1  0
  4  9  2  0
  4  5  1  0
  5  6  1  0
  5  8  1  0
  6 10  2  0
  8 13  1  0
 11 12  3  0
 16 19  1  0
 19 25  1  0
 17 26  1  0
 22 27  1  0
 27 28  1  0
 13 20  2  0
 20 21  1  0
 21 24  2  0
 24 23  1  0
 23 22  2  0
 22 13  1  0
  7 18  2  0
 18 17  1  0
 17 16  2  0
 16 15  1  0
 15 14  2  0
 14  7  1  0
M  END

$$$$
No_271-gen_results_new/Mpro_initial_molecule_p3/2024-06-19-20-31-25/
     RDKit          3D

 28 30  0  0  0  0  0  0  0  0999 V2000
  -10.3383   15.1532   67.5971 C   0  0  0  0  0  0  0  0  0  0  0  0
  -10.7220   15.1619   68.8301 N   0  0  0  0  0  0  0  0  0  0  0  0
  -10.4044   16.2024   69.6852 N   0  0  0  0  0  0  0  0  0  0  0  0
   -9.7271   17.3221   69.2607 C   0  0  0  0  0  0  0  0  0  0  0  0
   -9.3095   17.3212   67.9557 N   0  0  0  0  0  0  0  0  0  0  0  0
   -9.5450   16.2958   67.0814 C   0  0  0  0  0  0  0  0  0  0  0  0
  -10.8644   16.0907   71.0374 C   0  0  0  0  0  0  0  0  0  0  0  0
   -8.5330   18.4792   67.4604 C   0  0  0  0  0  0  0  0  0  0  0  0
   -9.5433   18.2987   69.9938 O   0  0  0  0  0  0  0  0  0  0  0  0
   -9.1481   16.2876   65.9124 O   0  0  0  0  0  0  0  0  0  0  0  0
  -10.7304   14.0247   66.8209 C   0  0  0  0  0  0  0  0  0  0  0  0
  -11.1003   13.0895   66.2465 N   0  0  0  0  0  0  0  0  0  0  0  0
   -7.0275   18.2876   67.7219 C   0  0  0  0  0  0  0  0  0  0  0  0
  -10.0126   16.3511   72.1395 C   0  0  0  0  0  0  0  0  0  0  0  0
  -10.4883   16.2212   73.4591 C   0  0  0  0  0  0  0  0  0  0  0  0
  -11.8103   15.8022   73.6966 C   0  0  0  0  0  0  0  0  0  0  0  0
  -12.6594   15.5153   72.6113 C   0  0  0  0  0  0  0  0  0  0  0  0
  -12.1896   15.6561   71.2886 C   0  0  0  0  0  0  0  0  0  0  0  0
  -12.3486   15.5799   75.3255 Cl  0  0  0  0  0  0  0  0  0  0  0  0
   -6.4523   19.3079   67.8835 C   0  0  0  0  0  0  0  0  0  0  0  0
   -4.9674   19.3665   67.8795 C   0  0  0  0  0  0  0  0  0  0  0  0
   -4.2474   20.6429   68.0405 C   0  0  0  0  0  0  0  0  0  0  0  0
   -2.7799   20.4585   67.8108 C   0  0  0  0  0  0  0  0  0  0  0  0
   -2.2370   19.1734   67.4842 C   0  0  0  0  0  0  0  0  0  0  0  0
   -3.0113   17.9909   67.3027 C   0  0  0  0  0  0  0  0  0  0  0  0
   -4.4023   18.1070   67.4917 C   0  0  0  0  0  0  0  0  0  0  0  0
  -14.1199   14.9552   72.8036 C   0  0  0  0  0  0  0  0  0  0  0  0
   -0.8907   19.0796   67.3848 F   0  0  0  0  0  0  0  0  0  0  0  0
  1  2  2  0
  1  6  1  0
  1 11  1  0
  2  3  1  0
  3  4  1  0
  3  7  1  0
  4  9  2  0
  4  5  1  0
  5  6  1  0
  5  8  1  0
  6 10  2  0
  8 13  1  0
 11 12  3  0
 16 19  1  0
 13 20  1  0
 20 21  1  0
 17 27  1  0
 24 28  1  0
  7 18  2  0
 18 17  1  0
 17 16  2  0
 16 15  1  0
 15 14  2  0
 14  7  1  0
 21 22  2  0
 22 23  1  0
 23 24  2  0
 24 25  1  0
 25 26  2  0
 26 21  1  0
M  END

$$$$
No_272-gen_results_new/Mpro_initial_molecule_p3/2024-06-19-20-31-25/
     RDKit          3D

 28 30  0  0  0  0  0  0  0  0999 V2000
  -10.3383   15.1532   67.5971 C   0  0  0  0  0  0  0  0  0  0  0  0
  -10.7220   15.1619   68.8301 N   0  0  0  0  0  0  0  0  0  0  0  0
  -10.4044   16.2024   69.6852 N   0  0  0  0  0  0  0  0  0  0  0  0
   -9.7271   17.3221   69.2607 C   0  0  0  0  0  0  0  0  0  0  0  0
   -9.3095   17.3212   67.9557 N   0  0  0  0  0  0  0  0  0  0  0  0
   -9.5450   16.2958   67.0814 C   0  0  0  0  0  0  0  0  0  0  0  0
  -10.8644   16.0907   71.0374 C   0  0  0  0  0  0  0  0  0  0  0  0
   -8.5330   18.4792   67.4604 C   0  0  0  0  0  0  0  0  0  0  0  0
   -9.5433   18.2987   69.9938 O   0  0  0  0  0  0  0  0  0  0  0  0
   -9.1481   16.2876   65.9124 O   0  0  0  0  0  0  0  0  0  0  0  0
  -10.7304   14.0247   66.8209 C   0  0  0  0  0  0  0  0  0  0  0  0
  -11.1003   13.0895   66.2465 N   0  0  0  0  0  0  0  0  0  0  0  0
   -7.0275   18.2876   67.7219 C   0  0  0  0  0  0  0  0  0  0  0  0
  -10.0126   16.3511   72.1395 C   0  0  0  0  0  0  0  0  0  0  0  0
  -10.4883   16.2212   73.4591 C   0  0  0  0  0  0  0  0  0  0  0  0
  -11.8103   15.8022   73.6966 C   0  0  0  0  0  0  0  0  0  0  0  0
  -12.6594   15.5153   72.6113 C   0  0  0  0  0  0  0  0  0  0  0  0
  -12.1896   15.6561   71.2886 C   0  0  0  0  0  0  0  0  0  0  0  0
  -12.3486   15.5799   75.3255 Cl  0  0  0  0  0  0  0  0  0  0  0  0
   -6.3899   19.0618   66.8364 O   0  0  0  0  0  0  0  0  0  0  0  0
   -6.5392   17.3329   68.2606 N   0  0  0  0  0  0  0  0  0  0  0  0
  -14.0256   14.9872   72.8046 N   0  0  0  0  0  0  0  0  0  0  0  0
   -5.1657   17.1462   68.4145 C   0  0  0  0  0  0  0  0  0  0  0  0
   -4.8637   15.8366   69.1028 C   0  0  0  0  0  0  0  0  0  0  0  0
   -3.5089   15.3594   68.9534 C   0  0  0  0  0  0  0  0  0  0  0  0
   -2.6025   16.1506   68.3373 C   0  0  0  0  0  0  0  0  0  0  0  0
   -2.9442   17.4170   67.7762 C   0  0  0  0  0  0  0  0  0  0  0  0
   -4.2462   17.7918   67.7833 C   0  0  0  0  0  0  0  0  0  0  0  0
  1  2  2  0
  1  6  1  0
  1 11  1  0
  2  3  1  0
  3  4  1  0
  3  7  1  0
  4  9  2  0
  4  5  1  0
  5  6  1  0
  5  8  1  0
  6 10  2  0
  8 13  1  0
 11 12  3  0
 16 19  1  0
 13 20  2  0
 13 21  1  0
 17 22  1  0
 21 23  1  0
 23 24  2  0
 24 25  1  0
 25 26  2  0
 26 27  1  0
 27 28  2  0
 28 23  1  0
  7 18  2  0
 18 17  1  0
 17 16  2  0
 16 15  1  0
 15 14  2  0
 14  7  1  0
M  END

$$$$
No_273-gen_results_new/Mpro_initial_molecule_p3/2024-06-19-20-31-25/
     RDKit          3D

 28 30  0  0  0  0  0  0  0  0999 V2000
  -10.3383   15.1532   67.5971 C   0  0  0  0  0  0  0  0  0  0  0  0
  -10.7220   15.1619   68.8301 N   0  0  0  0  0  0  0  0  0  0  0  0
  -10.4044   16.2024   69.6852 N   0  0  0  0  0  0  0  0  0  0  0  0
   -9.7271   17.3221   69.2607 C   0  0  0  0  0  0  0  0  0  0  0  0
   -9.3095   17.3212   67.9557 N   0  0  0  0  0  0  0  0  0  0  0  0
   -9.5450   16.2958   67.0814 C   0  0  0  0  0  0  0  0  0  0  0  0
  -10.8644   16.0907   71.0374 C   0  0  0  0  0  0  0  0  0  0  0  0
   -8.5330   18.4792   67.4604 C   0  0  0  0  0  0  0  0  0  0  0  0
   -9.5433   18.2987   69.9938 O   0  0  0  0  0  0  0  0  0  0  0  0
   -9.1481   16.2876   65.9124 O   0  0  0  0  0  0  0  0  0  0  0  0
  -10.7304   14.0247   66.8209 C   0  0  0  0  0  0  0  0  0  0  0  0
  -11.1003   13.0895   66.2465 N   0  0  0  0  0  0  0  0  0  0  0  0
   -7.0275   18.2876   67.7219 C   0  0  0  0  0  0  0  0  0  0  0  0
  -10.0126   16.3511   72.1395 C   0  0  0  0  0  0  0  0  0  0  0  0
  -10.4883   16.2212   73.4591 C   0  0  0  0  0  0  0  0  0  0  0  0
  -11.8103   15.8022   73.6966 C   0  0  0  0  0  0  0  0  0  0  0  0
  -12.6594   15.5153   72.6113 C   0  0  0  0  0  0  0  0  0  0  0  0
  -12.1896   15.6561   71.2886 C   0  0  0  0  0  0  0  0  0  0  0  0
  -12.2768   15.6000   75.1088 C   0  0  0  0  0  0  0  0  0  0  0  0
   -6.4522   19.3092   67.8826 C   0  0  0  0  0  0  0  0  0  0  0  0
  -12.3537   14.5923   75.5994 O   0  0  0  0  0  0  0  0  0  0  0  0
  -12.8079   16.7351   75.7027 N   0  0  0  0  0  0  0  0  0  0  0  0
   -6.3184   20.3973   67.0193 C   0  0  0  0  0  0  0  0  0  0  0  0
   -7.7139   20.6232   66.4190 C   0  0  0  0  0  0  0  0  0  0  0  0
   -8.7990   19.6454   66.6658 C   0  0  0  0  0  0  0  0  0  0  0  0
   -5.4649   21.3359   66.8149 O   0  0  0  0  0  0  0  0  0  0  0  0
   -4.4453   21.1365   66.0378 C   0  0  0  0  0  0  0  0  0  0  0  0
   -3.5428   20.3797   66.3249 C   0  0  0  0  0  0  0  0  0  0  0  0
  1  2  2  0
  1  6  1  0
  1 11  1  0
  2  3  1  0
  3  4  1  0
  3  7  1  0
  4  9  2  0
  4  5  1  0
  5  6  1  0
  5  8  1  0
  6 10  2  0
 11 12  3  0
 16 19  1  0
 19 21  2  0
 19 22  1  0
 23 26  1  0
 26 27  1  0
 27 28  1  0
  8 13  2  0
 13 20  1  0
 20 23  2  0
 23 24  1  0
 24 25  2  0
 25  8  1  0
  7 18  2  0
 18 17  1  0
 17 16  2  0
 16 15  1  0
 15 14  2  0
 14  7  1  0
M  END

$$$$
No_274-gen_results_new/Mpro_initial_molecule_p3/2024-06-19-20-31-25/
     RDKit          3D

 28 30  0  0  0  0  0  0  0  0999 V2000
  -10.3383   15.1532   67.5971 C   0  0  0  0  0  0  0  0  0  0  0  0
  -10.7220   15.1619   68.8301 N   0  0  0  0  0  0  0  0  0  0  0  0
  -10.4044   16.2024   69.6852 N   0  0  0  0  0  0  0  0  0  0  0  0
   -9.7271   17.3221   69.2607 C   0  0  0  0  0  0  0  0  0  0  0  0
   -9.3095   17.3212   67.9557 N   0  0  0  0  0  0  0  0  0  0  0  0
   -9.5450   16.2958   67.0814 C   0  0  0  0  0  0  0  0  0  0  0  0
  -10.8644   16.0907   71.0374 C   0  0  0  0  0  0  0  0  0  0  0  0
   -8.5330   18.4792   67.4604 C   0  0  0  0  0  0  0  0  0  0  0  0
   -9.5433   18.2987   69.9938 O   0  0  0  0  0  0  0  0  0  0  0  0
   -9.1481   16.2876   65.9124 O   0  0  0  0  0  0  0  0  0  0  0  0
  -10.7304   14.0247   66.8209 C   0  0  0  0  0  0  0  0  0  0  0  0
  -11.1003   13.0895   66.2465 N   0  0  0  0  0  0  0  0  0  0  0  0
   -7.0275   18.2876   67.7219 C   0  0  0  0  0  0  0  0  0  0  0  0
  -10.0126   16.3511   72.1395 C   0  0  0  0  0  0  0  0  0  0  0  0
  -10.4883   16.2212   73.4591 C   0  0  0  0  0  0  0  0  0  0  0  0
  -11.8103   15.8022   73.6966 C   0  0  0  0  0  0  0  0  0  0  0  0
  -12.6594   15.5153   72.6113 C   0  0  0  0  0  0  0  0  0  0  0  0
  -12.1896   15.6561   71.2886 C   0  0  0  0  0  0  0  0  0  0  0  0
  -12.2484   15.6088   75.0145 O   0  0  0  0  0  0  0  0  0  0  0  0
   -6.5341   17.3731   68.3686 C   0  0  0  0  0  0  0  0  0  0  0  0
   -5.1247   17.1828   68.5818 C   0  0  0  0  0  0  0  0  0  0  0  0
   -4.4393   18.0516   67.8375 C   0  0  0  0  0  0  0  0  0  0  0  0
   -4.8689   19.0477   67.0691 C   0  0  0  0  0  0  0  0  0  0  0  0
   -6.2627   19.1642   66.9258 C   0  0  0  0  0  0  0  0  0  0  0  0
  -12.3371   16.7920   75.7212 C   0  0  0  0  0  0  0  0  0  0  0  0
  -14.3004   14.8134   72.8430 Cl  0  0  0  0  0  0  0  0  0  0  0  0
   -3.9999   19.9994   66.3269 C   0  0  0  0  0  0  0  0  0  0  0  0
   -3.9254   20.0064   65.1118 N   0  0  0  0  0  0  0  0  0  0  0  0
  1  2  2  0
  1  6  1  0
  1 11  1  0
  2  3  1  0
  3  4  1  0
  3  7  1  0
  4  9  2  0
  4  5  1  0
  5  6  1  0
  5  8  1  0
  6 10  2  0
  8 13  1  0
 11 12  3  0
 16 19  1  0
 19 25  1  0
 17 26  1  0
 23 27  1  0
 27 28  1  0
 13 20  2  0
 20 21  1  0
 21 22  2  0
 22 23  1  0
 23 24  2  0
 24 13  1  0
  7 18  2  0
 18 17  1  0
 17 16  2  0
 16 15  1  0
 15 14  2  0
 14  7  1  0
M  END

$$$$
No_275-gen_results_new/Mpro_initial_molecule_p3/2024-06-19-20-31-25/
     RDKit          3D

 28 29  0  0  0  0  0  0  0  0999 V2000
  -10.3383   15.1532   67.5971 C   0  0  0  0  0  0  0  0  0  0  0  0
  -10.7220   15.1619   68.8301 N   0  0  0  0  0  0  0  0  0  0  0  0
  -10.4044   16.2024   69.6852 N   0  0  0  0  0  0  0  0  0  0  0  0
   -9.7271   17.3221   69.2607 C   0  0  0  0  0  0  0  0  0  0  0  0
   -9.3095   17.3212   67.9557 N   0  0  0  0  0  0  0  0  0  0  0  0
   -9.5450   16.2958   67.0814 C   0  0  0  0  0  0  0  0  0  0  0  0
  -10.8644   16.0907   71.0374 C   0  0  0  0  0  0  0  0  0  0  0  0
   -8.5330   18.4792   67.4604 C   0  0  0  0  0  0  0  0  0  0  0  0
   -9.5433   18.2987   69.9938 O   0  0  0  0  0  0  0  0  0  0  0  0
   -9.1481   16.2876   65.9124 O   0  0  0  0  0  0  0  0  0  0  0  0
  -10.7304   14.0247   66.8209 C   0  0  0  0  0  0  0  0  0  0  0  0
  -11.1003   13.0895   66.2465 N   0  0  0  0  0  0  0  0  0  0  0  0
   -7.0275   18.2876   67.7219 C   0  0  0  0  0  0  0  0  0  0  0  0
  -10.0126   16.3511   72.1395 C   0  0  0  0  0  0  0  0  0  0  0  0
  -10.4883   16.2212   73.4591 C   0  0  0  0  0  0  0  0  0  0  0  0
  -11.8103   15.8022   73.6966 C   0  0  0  0  0  0  0  0  0  0  0  0
  -12.6594   15.5153   72.6113 C   0  0  0  0  0  0  0  0  0  0  0  0
  -12.1896   15.6561   71.2886 C   0  0  0  0  0  0  0  0  0  0  0  0
  -12.2768   15.6000   75.1088 C   0  0  0  0  0  0  0  0  0  0  0  0
   -6.4522   19.3092   67.8826 C   0  0  0  0  0  0  0  0  0  0  0  0
  -12.3537   14.5923   75.5994 O   0  0  0  0  0  0  0  0  0  0  0  0
  -12.4562   16.7011   75.7589 O   0  0  0  0  0  0  0  0  0  0  0  0
   -4.9619   19.3656   67.8985 C   0  0  0  0  0  0  0  0  0  0  0  0
   -4.2441   20.6396   68.0492 C   0  0  0  0  0  0  0  0  0  0  0  0
   -4.2888   21.5008   67.4807 O   0  0  0  0  0  0  0  0  0  0  0  0
   -3.2322   20.4784   69.0781 N   0  0  0  0  0  0  0  0  0  0  0  0
   -2.8236   19.3774   69.7916 C   0  0  0  0  0  0  0  0  0  0  0  0
   -3.3352   19.3162   71.0893 C   0  0  0  0  0  0  0  0  0  0  0  0
  1  2  2  0
  1  6  1  0
  1 11  1  0
  2  3  1  0
  3  4  1  0
  3  7  1  0
  4  9  2  0
  4  5  1  0
  5  6  1  0
  5  8  1  0
  6 10  2  0
  8 13  1  0
 11 12  3  0
 16 19  1  0
 13 20  1  0
 19 21  2  0
 19 22  1  0
 20 23  1  0
 23 24  1  0
 24 25  2  0
 24 26  1  0
 26 27  1  0
 27 28  1  0
  7 18  2  0
 18 17  1  0
 17 16  2  0
 16 15  1  0
 15 14  2  0
 14  7  1  0
M  END

$$$$
No_276-gen_results_new/Mpro_initial_molecule_p3/2024-06-19-20-31-25/
     RDKit          3D

 27 29  0  0  0  0  0  0  0  0999 V2000
  -10.3383   15.1532   67.5971 C   0  0  0  0  0  0  0  0  0  0  0  0
  -10.7220   15.1619   68.8301 N   0  0  0  0  0  0  0  0  0  0  0  0
  -10.4044   16.2024   69.6852 N   0  0  0  0  0  0  0  0  0  0  0  0
   -9.7271   17.3221   69.2607 C   0  0  0  0  0  0  0  0  0  0  0  0
   -9.3095   17.3212   67.9557 N   0  0  0  0  0  0  0  0  0  0  0  0
   -9.5450   16.2958   67.0814 C   0  0  0  0  0  0  0  0  0  0  0  0
  -10.8644   16.0907   71.0374 C   0  0  0  0  0  0  0  0  0  0  0  0
   -8.5330   18.4792   67.4604 C   0  0  0  0  0  0  0  0  0  0  0  0
   -9.5433   18.2987   69.9938 O   0  0  0  0  0  0  0  0  0  0  0  0
   -9.1481   16.2876   65.9124 O   0  0  0  0  0  0  0  0  0  0  0  0
  -10.7304   14.0247   66.8209 C   0  0  0  0  0  0  0  0  0  0  0  0
  -11.1003   13.0895   66.2465 N   0  0  0  0  0  0  0  0  0  0  0  0
   -7.0275   18.2876   67.7219 C   0  0  0  0  0  0  0  0  0  0  0  0
  -10.0126   16.3511   72.1395 C   0  0  0  0  0  0  0  0  0  0  0  0
  -10.4883   16.2212   73.4591 C   0  0  0  0  0  0  0  0  0  0  0  0
  -11.8103   15.8022   73.6966 C   0  0  0  0  0  0  0  0  0  0  0  0
  -12.6594   15.5153   72.6113 C   0  0  0  0  0  0  0  0  0  0  0  0
  -12.1896   15.6561   71.2886 C   0  0  0  0  0  0  0  0  0  0  0  0
  -12.2768   15.6000   75.1088 C   0  0  0  0  0  0  0  0  0  0  0  0
   -6.3059   19.3590   66.9154 C   0  0  0  0  0  0  0  0  0  0  0  0
   -4.9893   19.4432   66.9685 C   0  0  0  0  0  0  0  0  0  0  0  0
   -4.2885   20.4304   66.2887 C   0  0  0  0  0  0  0  0  0  0  0  0
   -4.9684   21.5145   65.8586 C   0  0  0  0  0  0  0  0  0  0  0  0
   -6.3360   21.4886   65.8472 N   0  0  0  0  0  0  0  0  0  0  0  0
   -7.0197   20.4702   66.3828 C   0  0  0  0  0  0  0  0  0  0  0  0
  -12.3531   14.5920   75.5994 O   0  0  0  0  0  0  0  0  0  0  0  0
  -12.4209   16.7480   75.8013 N   0  0  0  0  0  0  0  0  0  0  0  0
  1  2  2  0
  1  6  1  0
  1 11  1  0
  2  3  1  0
  3  4  1  0
  3  7  1  0
  4  9  2  0
  4  5  1  0
  5  6  1  0
  5  8  1  0
  6 10  2  0
  8 13  1  0
 11 12  3  0
 16 19  1  0
 13 20  1  0
 19 26  2  0
 19 27  1  0
 20 21  2  0
 21 22  1  0
 22 23  2  0
 23 24  1  0
 24 25  2  0
 25 20  1  0
  7 18  2  0
 18 17  1  0
 17 16  2  0
 16 15  1  0
 15 14  2  0
 14  7  1  0
M  END

$$$$
No_277-gen_results_new/Mpro_initial_molecule_p3/2024-06-19-20-31-25/
     RDKit          3D

 28 30  0  0  0  0  0  0  0  0999 V2000
  -10.3383   15.1532   67.5971 C   0  0  0  0  0  0  0  0  0  0  0  0
  -10.7220   15.1619   68.8301 N   0  0  0  0  0  0  0  0  0  0  0  0
  -10.4044   16.2024   69.6852 N   0  0  0  0  0  0  0  0  0  0  0  0
   -9.7271   17.3221   69.2607 C   0  0  0  0  0  0  0  0  0  0  0  0
   -9.3095   17.3212   67.9557 N   0  0  0  0  0  0  0  0  0  0  0  0
   -9.5450   16.2958   67.0814 C   0  0  0  0  0  0  0  0  0  0  0  0
  -10.8644   16.0907   71.0374 C   0  0  0  0  0  0  0  0  0  0  0  0
   -8.5330   18.4792   67.4604 C   0  0  0  0  0  0  0  0  0  0  0  0
   -9.5433   18.2987   69.9938 O   0  0  0  0  0  0  0  0  0  0  0  0
   -9.1481   16.2876   65.9124 O   0  0  0  0  0  0  0  0  0  0  0  0
  -10.7304   14.0247   66.8209 C   0  0  0  0  0  0  0  0  0  0  0  0
  -11.1003   13.0895   66.2465 N   0  0  0  0  0  0  0  0  0  0  0  0
   -7.0275   18.2876   67.7219 C   0  0  0  0  0  0  0  0  0  0  0  0
  -10.0126   16.3511   72.1395 C   0  0  0  0  0  0  0  0  0  0  0  0
  -10.4883   16.2212   73.4591 C   0  0  0  0  0  0  0  0  0  0  0  0
  -11.8103   15.8022   73.6966 C   0  0  0  0  0  0  0  0  0  0  0  0
  -12.6594   15.5153   72.6113 C   0  0  0  0  0  0  0  0  0  0  0  0
  -12.1896   15.6561   71.2886 C   0  0  0  0  0  0  0  0  0  0  0  0
  -12.3486   15.5799   75.3255 Cl  0  0  0  0  0  0  0  0  0  0  0  0
   -6.3058   19.3592   66.9157 C   0  0  0  0  0  0  0  0  0  0  0  0
   -4.9894   19.4433   66.9687 C   0  0  0  0  0  0  0  0  0  0  0  0
   -4.2885   20.4306   66.2890 C   0  0  0  0  0  0  0  0  0  0  0  0
   -4.9684   21.5146   65.8589 C   0  0  0  0  0  0  0  0  0  0  0  0
   -6.3744   21.4843   65.8347 C   0  0  0  0  0  0  0  0  0  0  0  0
   -7.0549   20.4513   66.4029 C   0  0  0  0  0  0  0  0  0  0  0  0
   -4.1772   22.5486   65.2268 N   0  0  0  0  0  0  0  0  0  0  0  0
  -13.9947   15.0209   72.7826 F   0  0  0  0  0  0  0  0  0  0  0  0
   -3.7199   22.5232   64.0013 C   0  0  0  0  0  0  0  0  0  0  0  0
  1  2  2  0
  1  6  1  0
  1 11  1  0
  2  3  1  0
  3  4  1  0
  3  7  1  0
  4  9  2  0
  4  5  1  0
  5  6  1  0
  5  8  1  0
  6 10  2  0
  8 13  1  0
 11 12  3  0
 16 19  1  0
 13 20  1  0
 23 26  1  0
 17 27  1  0
 26 28  1  0
 20 21  2  0
 21 22  1  0
 22 23  2  0
 23 24  1  0
 24 25  2  0
 25 20  1  0
  7 18  2  0
 18 17  1  0
 17 16  2  0
 16 15  1  0
 15 14  2  0
 14  7  1  0
M  END

$$$$
No_278-gen_results_new/Mpro_initial_molecule_p3/2024-06-19-20-31-25/
     RDKit          3D

 28 30  0  0  0  0  0  0  0  0999 V2000
  -10.3383   15.1532   67.5971 C   0  0  0  0  0  0  0  0  0  0  0  0
  -10.7220   15.1619   68.8301 N   0  0  0  0  0  0  0  0  0  0  0  0
  -10.4044   16.2024   69.6852 N   0  0  0  0  0  0  0  0  0  0  0  0
   -9.7271   17.3221   69.2607 C   0  0  0  0  0  0  0  0  0  0  0  0
   -9.3095   17.3212   67.9557 N   0  0  0  0  0  0  0  0  0  0  0  0
   -9.5450   16.2958   67.0814 C   0  0  0  0  0  0  0  0  0  0  0  0
  -10.8644   16.0907   71.0374 C   0  0  0  0  0  0  0  0  0  0  0  0
   -8.5330   18.4792   67.4604 C   0  0  0  0  0  0  0  0  0  0  0  0
   -9.5433   18.2987   69.9938 O   0  0  0  0  0  0  0  0  0  0  0  0
   -9.1481   16.2876   65.9124 O   0  0  0  0  0  0  0  0  0  0  0  0
  -10.7304   14.0247   66.8209 C   0  0  0  0  0  0  0  0  0  0  0  0
  -11.1003   13.0895   66.2465 N   0  0  0  0  0  0  0  0  0  0  0  0
   -7.0275   18.2876   67.7219 C   0  0  0  0  0  0  0  0  0  0  0  0
  -10.0126   16.3511   72.1395 C   0  0  0  0  0  0  0  0  0  0  0  0
  -10.4883   16.2212   73.4591 C   0  0  0  0  0  0  0  0  0  0  0  0
  -11.8103   15.8022   73.6966 C   0  0  0  0  0  0  0  0  0  0  0  0
  -12.6594   15.5153   72.6113 C   0  0  0  0  0  0  0  0  0  0  0  0
  -12.1896   15.6561   71.2886 C   0  0  0  0  0  0  0  0  0  0  0  0
  -12.2768   15.6000   75.1088 C   0  0  0  0  0  0  0  0  0  0  0  0
   -6.5341   17.3729   68.3685 C   0  0  0  0  0  0  0  0  0  0  0  0
   -5.1308   17.1882   68.5568 C   0  0  0  0  0  0  0  0  0  0  0  0
   -6.2282   19.1886   66.9092 C   0  0  0  0  0  0  0  0  0  0  0  0
   -4.8273   19.0035   67.0391 C   0  0  0  0  0  0  0  0  0  0  0  0
   -4.3060   18.0195   67.7979 C   0  0  0  0  0  0  0  0  0  0  0  0
  -12.3528   14.5927   75.5997 O   0  0  0  0  0  0  0  0  0  0  0  0
  -12.8124   16.6655   75.6553 O   0  0  0  0  0  0  0  0  0  0  0  0
  -14.3025   14.8790   72.8349 Cl  0  0  0  0  0  0  0  0  0  0  0  0
   -6.6090   20.2949   66.0892 C   0  0  0  0  0  0  0  0  0  0  0  0
  1  2  2  0
  1  6  1  0
  1 11  1  0
  2  3  1  0
  3  4  1  0
  3  7  1  0
  4  9  2  0
  4  5  1  0
  5  6  1  0
  5  8  1  0
  6 10  2  0
  8 13  1  0
 11 12  3  0
 16 19  1  0
 19 25  2  0
 19 26  1  0
 17 27  1  0
 22 28  1  0
 13 20  2  0
 20 21  1  0
 21 24  2  0
 24 23  1  0
 23 22  2  0
 22 13  1  0
  7 18  2  0
 18 17  1  0
 17 16  2  0
 16 15  1  0
 15 14  2  0
 14  7  1  0
M  END

$$$$
No_279-gen_results_new/Mpro_initial_molecule_p3/2024-06-19-20-31-25/
     RDKit          3D

 28 30  0  0  0  0  0  0  0  0999 V2000
  -10.3383   15.1532   67.5971 C   0  0  0  0  0  0  0  0  0  0  0  0
  -10.7220   15.1619   68.8301 N   0  0  0  0  0  0  0  0  0  0  0  0
  -10.4044   16.2024   69.6852 N   0  0  0  0  0  0  0  0  0  0  0  0
   -9.7271   17.3221   69.2607 C   0  0  0  0  0  0  0  0  0  0  0  0
   -9.3095   17.3212   67.9557 N   0  0  0  0  0  0  0  0  0  0  0  0
   -9.5450   16.2958   67.0814 C   0  0  0  0  0  0  0  0  0  0  0  0
  -10.8644   16.0907   71.0374 C   0  0  0  0  0  0  0  0  0  0  0  0
   -8.5330   18.4792   67.4604 C   0  0  0  0  0  0  0  0  0  0  0  0
   -9.5433   18.2987   69.9938 O   0  0  0  0  0  0  0  0  0  0  0  0
   -9.1481   16.2876   65.9124 O   0  0  0  0  0  0  0  0  0  0  0  0
  -10.7304   14.0247   66.8209 C   0  0  0  0  0  0  0  0  0  0  0  0
  -11.1003   13.0895   66.2465 N   0  0  0  0  0  0  0  0  0  0  0  0
   -7.0275   18.2876   67.7219 C   0  0  0  0  0  0  0  0  0  0  0  0
  -10.0126   16.3511   72.1395 C   0  0  0  0  0  0  0  0  0  0  0  0
  -10.4883   16.2212   73.4591 C   0  0  0  0  0  0  0  0  0  0  0  0
  -11.8103   15.8022   73.6966 C   0  0  0  0  0  0  0  0  0  0  0  0
  -12.6594   15.5153   72.6113 C   0  0  0  0  0  0  0  0  0  0  0  0
  -12.1896   15.6561   71.2886 C   0  0  0  0  0  0  0  0  0  0  0  0
  -12.3486   15.5799   75.3255 Cl  0  0  0  0  0  0  0  0  0  0  0  0
   -6.4523   19.3079   67.8835 C   0  0  0  0  0  0  0  0  0  0  0  0
   -6.2543   20.3849   67.0158 C   0  0  0  0  0  0  0  0  0  0  0  0
   -6.3456   20.0750   65.8013 C   0  0  0  0  0  0  0  0  0  0  0  0
   -5.5695   20.7218   64.7310 C   0  0  0  0  0  0  0  0  0  0  0  0
   -5.0147   21.9879   65.1220 C   0  0  0  0  0  0  0  0  0  0  0  0
   -4.7689   22.1960   66.5949 C   0  0  0  0  0  0  0  0  0  0  0  0
   -5.2934   21.3720   67.4528 C   0  0  0  0  0  0  0  0  0  0  0  0
   -6.3070   19.5998   69.3360 O   0  0  0  0  0  0  0  0  0  0  0  0
   -4.4314   22.7773   64.1215 O   0  0  0  0  0  0  0  0  0  0  0  0
  1  2  2  0
  1  6  1  0
  1 11  1  0
  2  3  1  0
  3  4  1  0
  3  7  1  0
  4  9  2  0
  4  5  1  0
  5  6  1  0
  5  8  1  0
  6 10  2  0
  8 13  1  0
 11 12  3  0
 16 19  1  0
 13 20  1  0
 20 21  1  0
 20 27  2  0
 24 28  1  0
  7 18  2  0
 18 17  1  0
 17 16  2  0
 16 15  1  0
 15 14  2  0
 14  7  1  0
 21 22  2  0
 22 23  1  0
 23 24  2  0
 24 25  1  0
 25 26  2  0
 26 21  1  0
M  END

$$$$
No_280-gen_results_new/Mpro_initial_molecule_p3/2024-06-19-20-31-25/
     RDKit          3D

 28 30  0  0  0  0  0  0  0  0999 V2000
  -10.3383   15.1532   67.5971 C   0  0  0  0  0  0  0  0  0  0  0  0
  -10.7220   15.1619   68.8301 N   0  0  0  0  0  0  0  0  0  0  0  0
  -10.4044   16.2024   69.6852 N   0  0  0  0  0  0  0  0  0  0  0  0
   -9.7271   17.3221   69.2607 C   0  0  0  0  0  0  0  0  0  0  0  0
   -9.3095   17.3212   67.9557 N   0  0  0  0  0  0  0  0  0  0  0  0
   -9.5450   16.2958   67.0814 C   0  0  0  0  0  0  0  0  0  0  0  0
  -10.8644   16.0907   71.0374 C   0  0  0  0  0  0  0  0  0  0  0  0
   -8.5330   18.4792   67.4604 C   0  0  0  0  0  0  0  0  0  0  0  0
   -9.5433   18.2987   69.9938 O   0  0  0  0  0  0  0  0  0  0  0  0
   -9.1481   16.2876   65.9124 O   0  0  0  0  0  0  0  0  0  0  0  0
  -10.7304   14.0247   66.8209 C   0  0  0  0  0  0  0  0  0  0  0  0
  -11.1003   13.0895   66.2465 N   0  0  0  0  0  0  0  0  0  0  0  0
   -7.0275   18.2876   67.7219 C   0  0  0  0  0  0  0  0  0  0  0  0
  -10.0126   16.3511   72.1395 C   0  0  0  0  0  0  0  0  0  0  0  0
  -10.4883   16.2212   73.4591 C   0  0  0  0  0  0  0  0  0  0  0  0
  -11.8103   15.8022   73.6966 C   0  0  0  0  0  0  0  0  0  0  0  0
  -12.6594   15.5153   72.6113 C   0  0  0  0  0  0  0  0  0  0  0  0
  -12.1896   15.6561   71.2886 C   0  0  0  0  0  0  0  0  0  0  0  0
  -12.2768   15.6000   75.1088 C   0  0  0  0  0  0  0  0  0  0  0  0
   -6.4522   19.3092   67.8826 C   0  0  0  0  0  0  0  0  0  0  0  0
  -12.5808   16.5955   75.6954 O   0  0  0  0  0  0  0  0  0  0  0  0
   -6.3967   20.4087   67.0290 C   0  0  0  0  0  0  0  0  0  0  0  0
   -7.7959   20.6521   66.4856 C   0  0  0  0  0  0  0  0  0  0  0  0
   -8.8566   19.6569   66.6933 C   0  0  0  0  0  0  0  0  0  0  0  0
   -5.4154   21.4152   66.7588 C   0  0  0  0  0  0  0  0  0  0  0  0
  -12.0944   14.5172   75.5791 O   0  0  0  0  0  0  0  0  0  0  0  0
   -4.2602   21.1659   67.3706 N   0  0  0  0  0  0  0  0  0  0  0  0
   -5.4076   21.9496   65.6267 O   0  0  0  0  0  0  0  0  0  0  0  0
  1  2  2  0
  1  6  1  0
  1 11  1  0
  2  3  1  0
  3  4  1  0
  3  7  1  0
  4  9  2  0
  4  5  1  0
  5  6  1  0
  5  8  1  0
  6 10  2  0
 11 12  3  0
 16 19  1  0
 19 21  1  0
 22 25  1  0
 19 26  2  0
 25 27  1  0
 25 28  2  0
  8 13  2  0
 13 20  1  0
 20 22  2  0
 22 23  1  0
 23 24  2  0
 24  8  1  0
  7 18  2  0
 18 17  1  0
 17 16  2  0
 16 15  1  0
 15 14  2  0
 14  7  1  0
M  END

$$$$
No_281-gen_results_new/Mpro_initial_molecule_p3/2024-06-19-20-31-25/
     RDKit          3D

 28 30  0  0  0  0  0  0  0  0999 V2000
  -10.3383   15.1532   67.5971 C   0  0  0  0  0  0  0  0  0  0  0  0
  -10.7220   15.1619   68.8301 N   0  0  0  0  0  0  0  0  0  0  0  0
  -10.4044   16.2024   69.6852 N   0  0  0  0  0  0  0  0  0  0  0  0
   -9.7271   17.3221   69.2607 C   0  0  0  0  0  0  0  0  0  0  0  0
   -9.3095   17.3212   67.9557 N   0  0  0  0  0  0  0  0  0  0  0  0
   -9.5450   16.2958   67.0814 C   0  0  0  0  0  0  0  0  0  0  0  0
  -10.8644   16.0907   71.0374 C   0  0  0  0  0  0  0  0  0  0  0  0
   -8.5330   18.4792   67.4604 C   0  0  0  0  0  0  0  0  0  0  0  0
   -9.5433   18.2987   69.9938 O   0  0  0  0  0  0  0  0  0  0  0  0
   -9.1481   16.2876   65.9124 O   0  0  0  0  0  0  0  0  0  0  0  0
  -10.7304   14.0247   66.8209 C   0  0  0  0  0  0  0  0  0  0  0  0
  -11.1003   13.0895   66.2465 N   0  0  0  0  0  0  0  0  0  0  0  0
   -7.0275   18.2876   67.7219 C   0  0  0  0  0  0  0  0  0  0  0  0
  -10.0126   16.3511   72.1395 C   0  0  0  0  0  0  0  0  0  0  0  0
  -10.4883   16.2212   73.4591 C   0  0  0  0  0  0  0  0  0  0  0  0
  -11.8103   15.8022   73.6966 C   0  0  0  0  0  0  0  0  0  0  0  0
  -12.6594   15.5153   72.6113 C   0  0  0  0  0  0  0  0  0  0  0  0
  -12.1896   15.6561   71.2886 C   0  0  0  0  0  0  0  0  0  0  0  0
  -12.2768   15.6000   75.1088 C   0  0  0  0  0  0  0  0  0  0  0  0
   -6.4522   19.3092   67.8826 C   0  0  0  0  0  0  0  0  0  0  0  0
  -12.3537   14.5923   75.5994 O   0  0  0  0  0  0  0  0  0  0  0  0
  -12.4562   16.7011   75.7589 O   0  0  0  0  0  0  0  0  0  0  0  0
   -6.0846   19.5167   69.0882 C   0  0  0  0  0  0  0  0  0  0  0  0
   -4.9403   20.3730   69.5028 C   0  0  0  0  0  0  0  0  0  0  0  0
   -4.1340   20.8978   68.4699 C   0  0  0  0  0  0  0  0  0  0  0  0
   -4.2667   20.4726   67.1551 C   0  0  0  0  0  0  0  0  0  0  0  0
   -5.4549   19.7233   66.8337 C   0  0  0  0  0  0  0  0  0  0  0  0
   -5.7253   19.4591   65.5383 O   0  0  0  0  0  0  0  0  0  0  0  0
  1  2  2  0
  1  6  1  0
  1 11  1  0
  2  3  1  0
  3  4  1  0
  3  7  1  0
  4  9  2  0
  4  5  1  0
  5  6  1  0
  5  8  1  0
  6 10  2  0
  8 13  1  0
 11 12  3  0
 16 19  1  0
 13 20  1  0
 19 21  2  0
 19 22  1  0
 27 28  1  0
 20 23  2  0
 23 24  1  0
 24 25  2  0
 25 26  1  0
 26 27  2  0
 27 20  1  0
  7 18  2  0
 18 17  1  0
 17 16  2  0
 16 15  1  0
 15 14  2  0
 14  7  1  0
M  END

$$$$
No_282-gen_results_new/Mpro_initial_molecule_p3/2024-06-19-20-31-25/
     RDKit          3D

 28 30  0  0  0  0  0  0  0  0999 V2000
  -10.3383   15.1532   67.5971 C   0  0  0  0  0  0  0  0  0  0  0  0
  -10.7220   15.1619   68.8301 N   0  0  0  0  0  0  0  0  0  0  0  0
  -10.4044   16.2024   69.6852 N   0  0  0  0  0  0  0  0  0  0  0  0
   -9.7271   17.3221   69.2607 C   0  0  0  0  0  0  0  0  0  0  0  0
   -9.3095   17.3212   67.9557 N   0  0  0  0  0  0  0  0  0  0  0  0
   -9.5450   16.2958   67.0814 C   0  0  0  0  0  0  0  0  0  0  0  0
  -10.8644   16.0907   71.0374 C   0  0  0  0  0  0  0  0  0  0  0  0
   -8.5330   18.4792   67.4604 C   0  0  0  0  0  0  0  0  0  0  0  0
   -9.5433   18.2987   69.9938 O   0  0  0  0  0  0  0  0  0  0  0  0
   -9.1481   16.2876   65.9124 O   0  0  0  0  0  0  0  0  0  0  0  0
  -10.7304   14.0247   66.8209 C   0  0  0  0  0  0  0  0  0  0  0  0
  -11.1003   13.0895   66.2465 N   0  0  0  0  0  0  0  0  0  0  0  0
   -7.0275   18.2876   67.7219 C   0  0  0  0  0  0  0  0  0  0  0  0
  -10.0126   16.3511   72.1395 C   0  0  0  0  0  0  0  0  0  0  0  0
  -10.4883   16.2212   73.4591 C   0  0  0  0  0  0  0  0  0  0  0  0
  -11.8103   15.8022   73.6966 C   0  0  0  0  0  0  0  0  0  0  0  0
  -12.6594   15.5153   72.6113 C   0  0  0  0  0  0  0  0  0  0  0  0
  -12.1896   15.6561   71.2886 C   0  0  0  0  0  0  0  0  0  0  0  0
  -12.3486   15.5799   75.3255 Cl  0  0  0  0  0  0  0  0  0  0  0  0
   -6.3058   19.3592   66.9157 C   0  0  0  0  0  0  0  0  0  0  0  0
   -4.9894   19.4433   66.9687 C   0  0  0  0  0  0  0  0  0  0  0  0
   -4.2710   18.3392   67.6547 C   0  0  0  0  0  0  0  0  0  0  0  0
   -5.0430   17.2550   68.3049 C   0  0  0  0  0  0  0  0  0  0  0  0
   -6.4241   17.2326   68.1847 C   0  0  0  0  0  0  0  0  0  0  0  0
   -4.2029   20.4288   66.3810 C   0  0  0  0  0  0  0  0  0  0  0  0
   -3.0584   20.6159   66.8086 O   0  0  0  0  0  0  0  0  0  0  0  0
   -4.7653   21.4394   65.6694 N   0  0  0  0  0  0  0  0  0  0  0  0
  -13.9947   15.0203   72.7828 F   0  0  0  0  0  0  0  0  0  0  0  0
  1  2  2  0
  1  6  1  0
  1 11  1  0
  2  3  1  0
  3  4  1  0
  3  7  1  0
  4  9  2  0
  4  5  1  0
  5  6  1  0
  5  8  1  0
  6 10  2  0
  8 13  1  0
 11 12  3  0
 16 19  1  0
 21 25  1  0
 25 26  2  0
 25 27  1  0
 17 28  1  0
 13 20  2  0
 20 21  1  0
 21 22  2  0
 22 23  1  0
 23 24  2  0
 24 13  1  0
  7 18  2  0
 18 17  1  0
 17 16  2  0
 16 15  1  0
 15 14  2  0
 14  7  1  0
M  END

$$$$
No_283-gen_results_new/Mpro_initial_molecule_p3/2024-06-19-20-31-25/
     RDKit          3D

 28 30  0  0  0  0  0  0  0  0999 V2000
  -10.3383   15.1532   67.5971 C   0  0  0  0  0  0  0  0  0  0  0  0
  -10.7220   15.1619   68.8301 N   0  0  0  0  0  0  0  0  0  0  0  0
  -10.4044   16.2024   69.6852 N   0  0  0  0  0  0  0  0  0  0  0  0
   -9.7271   17.3221   69.2607 C   0  0  0  0  0  0  0  0  0  0  0  0
   -9.3095   17.3212   67.9557 N   0  0  0  0  0  0  0  0  0  0  0  0
   -9.5450   16.2958   67.0814 C   0  0  0  0  0  0  0  0  0  0  0  0
  -10.8644   16.0907   71.0374 C   0  0  0  0  0  0  0  0  0  0  0  0
   -8.5330   18.4792   67.4604 C   0  0  0  0  0  0  0  0  0  0  0  0
   -9.5433   18.2987   69.9938 O   0  0  0  0  0  0  0  0  0  0  0  0
   -9.1481   16.2876   65.9124 O   0  0  0  0  0  0  0  0  0  0  0  0
  -10.7304   14.0247   66.8209 C   0  0  0  0  0  0  0  0  0  0  0  0
  -11.1003   13.0895   66.2465 N   0  0  0  0  0  0  0  0  0  0  0  0
   -7.0275   18.2876   67.7219 C   0  0  0  0  0  0  0  0  0  0  0  0
  -10.0126   16.3511   72.1395 C   0  0  0  0  0  0  0  0  0  0  0  0
  -10.4883   16.2212   73.4591 C   0  0  0  0  0  0  0  0  0  0  0  0
  -11.8103   15.8022   73.6966 C   0  0  0  0  0  0  0  0  0  0  0  0
  -12.6594   15.5153   72.6113 C   0  0  0  0  0  0  0  0  0  0  0  0
  -12.1896   15.6561   71.2886 C   0  0  0  0  0  0  0  0  0  0  0  0
  -12.2768   15.6000   75.1088 C   0  0  0  0  0  0  0  0  0  0  0  0
   -6.4522   19.3092   67.8826 C   0  0  0  0  0  0  0  0  0  0  0  0
  -12.5808   16.5955   75.6954 O   0  0  0  0  0  0  0  0  0  0  0  0
   -5.0148   19.2535   67.8417 N   0  0  0  0  0  0  0  0  0  0  0  0
   -4.6388   17.8840   67.5403 C   0  0  0  0  0  0  0  0  0  0  0  0
   -3.2236   17.6120   67.4875 C   0  0  0  0  0  0  0  0  0  0  0  0
   -2.5494   18.4792   67.7561 C   0  0  0  0  0  0  0  0  0  0  0  0
   -2.7833   19.9041   68.0583 C   0  0  0  0  0  0  0  0  0  0  0  0
   -4.0719   20.2120   68.1053 C   0  0  0  0  0  0  0  0  0  0  0  0
   -6.8903   20.4898   68.0677 O   0  0  0  0  0  0  0  0  0  0  0  0
  1  2  2  0
  1  6  1  0
  1 11  1  0
  2  3  1  0
  3  4  1  0
  3  7  1  0
  4  9  2  0
  4  5  1  0
  5  6  1  0
  5  8  1  0
  6 10  2  0
  8 13  1  0
 11 12  3  0
 16 19  1  0
 13 20  1  0
 19 21  1  0
 20 22  1  0
 22 23  1  0
 23 24  1  0
 25 26  1  0
 22 27  1  0
 20 28  2  0
 24 25  1  0
 26 27  1  0
  7 18  2  0
 18 17  1  0
 17 16  2  0
 16 15  1  0
 15 14  2  0
 14  7  1  0
M  END

$$$$
No_284-gen_results_new/Mpro_initial_molecule_p3/2024-06-19-20-31-25/
     RDKit          3D

 28 30  0  0  0  0  0  0  0  0999 V2000
  -10.3383   15.1532   67.5971 C   0  0  0  0  0  0  0  0  0  0  0  0
  -10.7220   15.1619   68.8301 N   0  0  0  0  0  0  0  0  0  0  0  0
  -10.4044   16.2024   69.6852 N   0  0  0  0  0  0  0  0  0  0  0  0
   -9.7271   17.3221   69.2607 C   0  0  0  0  0  0  0  0  0  0  0  0
   -9.3095   17.3212   67.9557 N   0  0  0  0  0  0  0  0  0  0  0  0
   -9.5450   16.2958   67.0814 C   0  0  0  0  0  0  0  0  0  0  0  0
  -10.8644   16.0907   71.0374 C   0  0  0  0  0  0  0  0  0  0  0  0
   -8.5330   18.4792   67.4604 C   0  0  0  0  0  0  0  0  0  0  0  0
   -9.5433   18.2987   69.9938 O   0  0  0  0  0  0  0  0  0  0  0  0
   -9.1481   16.2876   65.9124 O   0  0  0  0  0  0  0  0  0  0  0  0
  -10.7304   14.0247   66.8209 C   0  0  0  0  0  0  0  0  0  0  0  0
  -11.1003   13.0895   66.2465 N   0  0  0  0  0  0  0  0  0  0  0  0
   -7.0275   18.2876   67.7219 C   0  0  0  0  0  0  0  0  0  0  0  0
  -10.0126   16.3511   72.1395 C   0  0  0  0  0  0  0  0  0  0  0  0
  -10.4883   16.2212   73.4591 C   0  0  0  0  0  0  0  0  0  0  0  0
  -11.8103   15.8022   73.6966 C   0  0  0  0  0  0  0  0  0  0  0  0
  -12.6594   15.5153   72.6113 C   0  0  0  0  0  0  0  0  0  0  0  0
  -12.1896   15.6561   71.2886 C   0  0  0  0  0  0  0  0  0  0  0  0
  -12.2768   15.6000   75.1088 C   0  0  0  0  0  0  0  0  0  0  0  0
   -6.3059   19.3590   66.9154 C   0  0  0  0  0  0  0  0  0  0  0  0
   -4.9259   19.3482   66.9559 C   0  0  0  0  0  0  0  0  0  0  0  0
   -4.2806   18.1589   67.5992 C   0  0  0  0  0  0  0  0  0  0  0  0
   -3.0113   18.0694   67.5239 F   0  0  0  0  0  0  0  0  0  0  0  0
   -5.0852   17.0850   68.1888 C   0  0  0  0  0  0  0  0  0  0  0  0
   -6.4873   17.1705   68.1434 C   0  0  0  0  0  0  0  0  0  0  0  0
  -12.5810   16.5945   75.6962 O   0  0  0  0  0  0  0  0  0  0  0  0
  -12.1192   14.5198   75.5992 O   0  0  0  0  0  0  0  0  0  0  0  0
   -4.1994   20.2994   66.4952 O   0  0  0  0  0  0  0  0  0  0  0  0
  1  2  2  0
  1  6  1  0
  1 11  1  0
  2  3  1  0
  3  4  1  0
  3  7  1  0
  4  9  2  0
  4  5  1  0
  5  6  1  0
  5  8  1  0
  6 10  2  0
  8 13  1  0
 11 12  3  0
 16 19  1  0
 22 23  1  0
 19 26  2  0
 19 27  1  0
 21 28  1  0
 13 20  2  0
 20 21  1  0
 21 22  2  0
 22 24  1  0
 24 25  2  0
 25 13  1  0
  7 18  2  0
 18 17  1  0
 17 16  2  0
 16 15  1  0
 15 14  2  0
 14  7  1  0
M  END

$$$$
No_285-gen_results_new/Mpro_initial_molecule_p3/2024-06-19-20-31-25/
     RDKit          3D

 27 29  0  0  0  0  0  0  0  0999 V2000
  -10.3383   15.1532   67.5971 C   0  0  0  0  0  0  0  0  0  0  0  0
  -10.7220   15.1619   68.8301 N   0  0  0  0  0  0  0  0  0  0  0  0
  -10.4044   16.2024   69.6852 N   0  0  0  0  0  0  0  0  0  0  0  0
   -9.7271   17.3221   69.2607 C   0  0  0  0  0  0  0  0  0  0  0  0
   -9.3095   17.3212   67.9557 N   0  0  0  0  0  0  0  0  0  0  0  0
   -9.5450   16.2958   67.0814 C   0  0  0  0  0  0  0  0  0  0  0  0
  -10.8644   16.0907   71.0374 C   0  0  0  0  0  0  0  0  0  0  0  0
   -8.5330   18.4792   67.4604 C   0  0  0  0  0  0  0  0  0  0  0  0
   -9.5433   18.2987   69.9938 O   0  0  0  0  0  0  0  0  0  0  0  0
   -9.1481   16.2876   65.9124 O   0  0  0  0  0  0  0  0  0  0  0  0
  -10.7304   14.0247   66.8209 C   0  0  0  0  0  0  0  0  0  0  0  0
  -11.1003   13.0895   66.2465 N   0  0  0  0  0  0  0  0  0  0  0  0
   -7.0275   18.2876   67.7219 C   0  0  0  0  0  0  0  0  0  0  0  0
  -10.0126   16.3511   72.1395 C   0  0  0  0  0  0  0  0  0  0  0  0
  -10.4883   16.2212   73.4591 C   0  0  0  0  0  0  0  0  0  0  0  0
  -11.8103   15.8022   73.6966 C   0  0  0  0  0  0  0  0  0  0  0  0
  -12.6594   15.5153   72.6113 C   0  0  0  0  0  0  0  0  0  0  0  0
  -12.1896   15.6561   71.2886 C   0  0  0  0  0  0  0  0  0  0  0  0
  -12.3486   15.5799   75.3255 Cl  0  0  0  0  0  0  0  0  0  0  0  0
   -6.4523   19.3079   67.8835 C   0  0  0  0  0  0  0  0  0  0  0  0
   -4.9276   19.3344   68.2144 C   0  0  0  0  0  0  0  0  0  0  0  0
   -4.2063   20.5661   68.2864 C   0  0  0  0  0  0  0  0  0  0  0  0
   -2.7311   20.3403   68.4294 C   0  0  0  0  0  0  0  0  0  0  0  0
   -2.1982   19.0466   68.6610 C   0  0  0  0  0  0  0  0  0  0  0  0
   -2.9948   17.8780   68.6553 C   0  0  0  0  0  0  0  0  0  0  0  0
   -4.3841   18.0175   68.4254 C   0  0  0  0  0  0  0  0  0  0  0  0
  -14.3633   14.8811   72.8218 Cl  0  0  0  0  0  0  0  0  0  0  0  0
  1  2  2  0
  1  6  1  0
  1 11  1  0
  2  3  1  0
  3  4  1  0
  3  7  1  0
  4  9  2  0
  4  5  1  0
  5  6  1  0
  5  8  1  0
  6 10  2  0
  8 13  1  0
 11 12  3  0
 16 19  1  0
 13 20  2  3
 20 21  1  0
 17 27  1  0
  7 18  2  0
 18 17  1  0
 17 16  2  0
 16 15  1  0
 15 14  2  0
 14  7  1  0
 21 22  2  0
 22 23  1  0
 23 24  2  0
 24 25  1  0
 25 26  2  0
 26 21  1  0
M  END

$$$$
No_286-gen_results_new/Mpro_initial_molecule_p3/2024-06-19-20-31-25/
     RDKit          3D

 27 29  0  0  0  0  0  0  0  0999 V2000
  -10.3383   15.1532   67.5971 C   0  0  0  0  0  0  0  0  0  0  0  0
  -10.7220   15.1619   68.8301 N   0  0  0  0  0  0  0  0  0  0  0  0
  -10.4044   16.2024   69.6852 N   0  0  0  0  0  0  0  0  0  0  0  0
   -9.7271   17.3221   69.2607 C   0  0  0  0  0  0  0  0  0  0  0  0
   -9.3095   17.3212   67.9557 N   0  0  0  0  0  0  0  0  0  0  0  0
   -9.5450   16.2958   67.0814 C   0  0  0  0  0  0  0  0  0  0  0  0
  -10.8644   16.0907   71.0374 C   0  0  0  0  0  0  0  0  0  0  0  0
   -8.5330   18.4792   67.4604 C   0  0  0  0  0  0  0  0  0  0  0  0
   -9.5433   18.2987   69.9938 O   0  0  0  0  0  0  0  0  0  0  0  0
   -9.1481   16.2876   65.9124 O   0  0  0  0  0  0  0  0  0  0  0  0
  -10.7304   14.0247   66.8209 C   0  0  0  0  0  0  0  0  0  0  0  0
  -11.1003   13.0895   66.2465 N   0  0  0  0  0  0  0  0  0  0  0  0
   -7.0275   18.2876   67.7219 C   0  0  0  0  0  0  0  0  0  0  0  0
  -10.0126   16.3511   72.1395 C   0  0  0  0  0  0  0  0  0  0  0  0
  -10.4883   16.2212   73.4591 C   0  0  0  0  0  0  0  0  0  0  0  0
  -11.8103   15.8022   73.6966 C   0  0  0  0  0  0  0  0  0  0  0  0
  -12.6594   15.5153   72.6113 C   0  0  0  0  0  0  0  0  0  0  0  0
  -12.1896   15.6561   71.2886 C   0  0  0  0  0  0  0  0  0  0  0  0
  -12.2768   15.6000   75.1088 C   0  0  0  0  0  0  0  0  0  0  0  0
   -6.3059   19.3590   66.9154 C   0  0  0  0  0  0  0  0  0  0  0  0
   -4.9893   19.4432   66.9685 C   0  0  0  0  0  0  0  0  0  0  0  0
   -4.2885   20.4305   66.2887 C   0  0  0  0  0  0  0  0  0  0  0  0
   -5.0487   21.4694   65.8827 N   0  0  0  0  0  0  0  0  0  0  0  0
   -6.3922   21.4440   65.8390 C   0  0  0  0  0  0  0  0  0  0  0  0
   -7.0762   20.4081   66.3864 C   0  0  0  0  0  0  0  0  0  0  0  0
  -12.3532   14.5920   75.5994 O   0  0  0  0  0  0  0  0  0  0  0  0
  -12.2292   16.6679   75.8387 O   0  0  0  0  0  0  0  0  0  0  0  0
  1  2  2  0
  1  6  1  0
  1 11  1  0
  2  3  1  0
  3  4  1  0
  3  7  1  0
  4  9  2  0
  4  5  1  0
  5  6  1  0
  5  8  1  0
  6 10  2  0
  8 13  1  0
 11 12  3  0
 16 19  1  0
 13 20  1  0
 19 26  2  0
 19 27  1  0
 20 21  2  0
 21 22  1  0
 22 23  2  0
 23 24  1  0
 24 25  2  0
 25 20  1  0
  7 18  2  0
 18 17  1  0
 17 16  2  0
 16 15  1  0
 15 14  2  0
 14  7  1  0
M  END

$$$$
No_287-gen_results_new/Mpro_initial_molecule_p3/2024-06-19-20-31-25/
     RDKit          3D

 24 25  0  0  0  0  0  0  0  0999 V2000
  -10.3383   15.1532   67.5971 C   0  0  0  0  0  0  0  0  0  0  0  0
  -10.7220   15.1619   68.8301 N   0  0  0  0  0  0  0  0  0  0  0  0
  -10.4044   16.2024   69.6852 N   0  0  0  0  0  0  0  0  0  0  0  0
   -9.7271   17.3221   69.2607 C   0  0  0  0  0  0  0  0  0  0  0  0
   -9.3095   17.3212   67.9557 N   0  0  0  0  0  0  0  0  0  0  0  0
   -9.5450   16.2958   67.0814 C   0  0  0  0  0  0  0  0  0  0  0  0
  -10.8644   16.0907   71.0374 C   0  0  0  0  0  0  0  0  0  0  0  0
   -8.5330   18.4792   67.4604 C   0  0  0  0  0  0  0  0  0  0  0  0
   -9.5433   18.2987   69.9938 O   0  0  0  0  0  0  0  0  0  0  0  0
   -9.1481   16.2876   65.9124 O   0  0  0  0  0  0  0  0  0  0  0  0
  -10.7304   14.0247   66.8209 C   0  0  0  0  0  0  0  0  0  0  0  0
  -11.1003   13.0895   66.2465 N   0  0  0  0  0  0  0  0  0  0  0  0
   -7.0275   18.2876   67.7219 C   0  0  0  0  0  0  0  0  0  0  0  0
  -10.0126   16.3511   72.1395 C   0  0  0  0  0  0  0  0  0  0  0  0
  -10.4883   16.2212   73.4591 C   0  0  0  0  0  0  0  0  0  0  0  0
  -11.8103   15.8022   73.6966 C   0  0  0  0  0  0  0  0  0  0  0  0
  -12.6594   15.5153   72.6113 C   0  0  0  0  0  0  0  0  0  0  0  0
  -12.1896   15.6561   71.2886 C   0  0  0  0  0  0  0  0  0  0  0  0
  -12.2484   15.6088   75.0145 O   0  0  0  0  0  0  0  0  0  0  0  0
   -6.3902   19.0617   66.8361 O   0  0  0  0  0  0  0  0  0  0  0  0
   -6.5797   17.5882   68.4946 O   0  0  0  0  0  0  0  0  0  0  0  0
  -12.3375   16.7904   75.7236 C   0  0  0  0  0  0  0  0  0  0  0  0
  -14.3002   14.8136   72.8429 Cl  0  0  0  0  0  0  0  0  0  0  0  0
  -11.4502   16.4206   77.0852 C   0  0  0  0  0  0  0  0  0  0  0  0
  1  2  2  0
  1  6  1  0
  1 11  1  0
  2  3  1  0
  3  4  1  0
  3  7  1  0
  4  9  2  0
  4  5  1  0
  5  6  1  0
  5  8  1  0
  6 10  2  0
  8 13  1  0
 11 12  3  0
 16 19  1  0
 13 20  2  0
 13 21  1  0
 19 22  1  0
 17 23  1  0
 22 24  1  0
  7 18  2  0
 18 17  1  0
 17 16  2  0
 16 15  1  0
 15 14  2  0
 14  7  1  0
M  END

$$$$
No_288-gen_results_new/Mpro_initial_molecule_p3/2024-06-19-20-31-25/
     RDKit          3D

 28 30  0  0  0  0  0  0  0  0999 V2000
  -10.3383   15.1532   67.5971 C   0  0  0  0  0  0  0  0  0  0  0  0
  -10.7220   15.1619   68.8301 N   0  0  0  0  0  0  0  0  0  0  0  0
  -10.4044   16.2024   69.6852 N   0  0  0  0  0  0  0  0  0  0  0  0
   -9.7271   17.3221   69.2607 C   0  0  0  0  0  0  0  0  0  0  0  0
   -9.3095   17.3212   67.9557 N   0  0  0  0  0  0  0  0  0  0  0  0
   -9.5450   16.2958   67.0814 C   0  0  0  0  0  0  0  0  0  0  0  0
  -10.8644   16.0907   71.0374 C   0  0  0  0  0  0  0  0  0  0  0  0
   -8.5330   18.4792   67.4604 C   0  0  0  0  0  0  0  0  0  0  0  0
   -9.5433   18.2987   69.9938 O   0  0  0  0  0  0  0  0  0  0  0  0
   -9.1481   16.2876   65.9124 O   0  0  0  0  0  0  0  0  0  0  0  0
  -10.7304   14.0247   66.8209 C   0  0  0  0  0  0  0  0  0  0  0  0
  -11.1003   13.0895   66.2465 N   0  0  0  0  0  0  0  0  0  0  0  0
   -7.0275   18.2876   67.7219 C   0  0  0  0  0  0  0  0  0  0  0  0
  -10.0126   16.3511   72.1395 C   0  0  0  0  0  0  0  0  0  0  0  0
  -10.4883   16.2212   73.4591 C   0  0  0  0  0  0  0  0  0  0  0  0
  -11.8103   15.8022   73.6966 C   0  0  0  0  0  0  0  0  0  0  0  0
  -12.6594   15.5153   72.6113 C   0  0  0  0  0  0  0  0  0  0  0  0
  -12.1896   15.6561   71.2886 C   0  0  0  0  0  0  0  0  0  0  0  0
  -12.3486   15.5799   75.3255 Cl  0  0  0  0  0  0  0  0  0  0  0  0
   -6.3058   19.3592   66.9157 C   0  0  0  0  0  0  0  0  0  0  0  0
   -4.9894   19.4432   66.9687 C   0  0  0  0  0  0  0  0  0  0  0  0
   -4.2885   20.4306   66.2890 C   0  0  0  0  0  0  0  0  0  0  0  0
   -4.9684   21.5146   65.8589 C   0  0  0  0  0  0  0  0  0  0  0  0
   -6.3360   21.4887   65.8474 N   0  0  0  0  0  0  0  0  0  0  0  0
   -7.0197   20.4703   66.3830 C   0  0  0  0  0  0  0  0  0  0  0  0
   -4.1963   22.6370   65.1762 C   0  0  0  0  0  0  0  0  0  0  0  0
   -4.1980   22.7270   63.9627 O   0  0  0  0  0  0  0  0  0  0  0  0
   -3.4350   23.2575   65.8746 O   0  0  0  0  0  0  0  0  0  0  0  0
  1  2  2  0
  1  6  1  0
  1 11  1  0
  2  3  1  0
  3  4  1  0
  3  7  1  0
  4  9  2  0
  4  5  1  0
  5  6  1  0
  5  8  1  0
  6 10  2  0
  8 13  1  0
 11 12  3  0
 16 19  1  0
 13 20  1  0
 23 26  1  0
 26 27  2  0
 26 28  1  0
 20 21  2  0
 21 22  1  0
 22 23  2  0
 23 24  1  0
 24 25  2  0
 25 20  1  0
  7 18  2  0
 18 17  1  0
 17 16  2  0
 16 15  1  0
 15 14  2  0
 14  7  1  0
M  END

$$$$
No_289-gen_results_new/Mpro_initial_molecule_p3/2024-06-19-20-31-25/
     RDKit          3D

 25 26  0  0  0  0  0  0  0  0999 V2000
  -10.3383   15.1532   67.5971 C   0  0  0  0  0  0  0  0  0  0  0  0
  -10.7220   15.1619   68.8301 N   0  0  0  0  0  0  0  0  0  0  0  0
  -10.4044   16.2024   69.6852 N   0  0  0  0  0  0  0  0  0  0  0  0
   -9.7271   17.3221   69.2607 C   0  0  0  0  0  0  0  0  0  0  0  0
   -9.3095   17.3212   67.9557 N   0  0  0  0  0  0  0  0  0  0  0  0
   -9.5450   16.2958   67.0814 C   0  0  0  0  0  0  0  0  0  0  0  0
  -10.8644   16.0907   71.0374 C   0  0  0  0  0  0  0  0  0  0  0  0
   -8.5330   18.4792   67.4604 C   0  0  0  0  0  0  0  0  0  0  0  0
   -9.5433   18.2987   69.9938 O   0  0  0  0  0  0  0  0  0  0  0  0
   -9.1481   16.2876   65.9124 O   0  0  0  0  0  0  0  0  0  0  0  0
  -10.7304   14.0247   66.8209 C   0  0  0  0  0  0  0  0  0  0  0  0
  -11.1003   13.0895   66.2465 N   0  0  0  0  0  0  0  0  0  0  0  0
   -7.0275   18.2876   67.7219 C   0  0  0  0  0  0  0  0  0  0  0  0
  -10.0126   16.3511   72.1395 C   0  0  0  0  0  0  0  0  0  0  0  0
  -10.4883   16.2212   73.4591 C   0  0  0  0  0  0  0  0  0  0  0  0
  -11.8103   15.8022   73.6966 C   0  0  0  0  0  0  0  0  0  0  0  0
  -12.6594   15.5153   72.6113 C   0  0  0  0  0  0  0  0  0  0  0  0
  -12.1896   15.6561   71.2886 C   0  0  0  0  0  0  0  0  0  0  0  0
  -12.3486   15.5799   75.3255 Cl  0  0  0  0  0  0  0  0  0  0  0  0
   -6.4523   19.3079   67.8835 C   0  0  0  0  0  0  0  0  0  0  0  0
   -6.4740   20.3250   66.9828 N   0  0  0  0  0  0  0  0  0  0  0  0
   -7.0426   20.0470   65.9495 C   0  0  0  0  0  0  0  0  0  0  0  0
   -8.5519   19.7054   65.9179 C   0  0  0  0  0  0  0  0  0  0  0  0
   -9.3329   19.2537   65.0922 O   0  0  0  0  0  0  0  0  0  0  0  0
   -9.2307   20.6046   66.8851 O   0  0  0  0  0  0  0  0  0  0  0  0
  1  2  2  0
  1  6  1  0
  1 11  1  0
  2  3  1  0
  3  4  1  0
  3  7  1  0
  4  9  2  0
  4  5  1  0
  5  6  1  0
  5  8  1  0
  6 10  2  0
  8 13  1  0
 11 12  3  0
 16 19  1  0
 13 20  1  0
 20 21  1  0
 21 22  1  0
 22 23  1  0
 23 24  1  0
 23 25  2  0
  7 18  2  0
 18 17  1  0
 17 16  2  0
 16 15  1  0
 15 14  2  0
 14  7  1  0
M  END

$$$$
No_290-gen_results_new/Mpro_initial_molecule_p3/2024-06-19-20-31-25/
     RDKit          3D

 28 30  0  0  0  0  0  0  0  0999 V2000
  -10.3383   15.1532   67.5971 C   0  0  0  0  0  0  0  0  0  0  0  0
  -10.7220   15.1619   68.8301 N   0  0  0  0  0  0  0  0  0  0  0  0
  -10.4044   16.2024   69.6852 N   0  0  0  0  0  0  0  0  0  0  0  0
   -9.7271   17.3221   69.2607 C   0  0  0  0  0  0  0  0  0  0  0  0
   -9.3095   17.3212   67.9557 N   0  0  0  0  0  0  0  0  0  0  0  0
   -9.5450   16.2958   67.0814 C   0  0  0  0  0  0  0  0  0  0  0  0
  -10.8644   16.0907   71.0374 C   0  0  0  0  0  0  0  0  0  0  0  0
   -8.5330   18.4792   67.4604 C   0  0  0  0  0  0  0  0  0  0  0  0
   -9.5433   18.2987   69.9938 O   0  0  0  0  0  0  0  0  0  0  0  0
   -9.1481   16.2876   65.9124 O   0  0  0  0  0  0  0  0  0  0  0  0
  -10.7304   14.0247   66.8209 C   0  0  0  0  0  0  0  0  0  0  0  0
  -11.1003   13.0895   66.2465 N   0  0  0  0  0  0  0  0  0  0  0  0
   -7.0275   18.2876   67.7219 C   0  0  0  0  0  0  0  0  0  0  0  0
  -10.0126   16.3511   72.1395 C   0  0  0  0  0  0  0  0  0  0  0  0
  -10.4883   16.2212   73.4591 C   0  0  0  0  0  0  0  0  0  0  0  0
  -11.8103   15.8022   73.6966 C   0  0  0  0  0  0  0  0  0  0  0  0
  -12.6594   15.5153   72.6113 C   0  0  0  0  0  0  0  0  0  0  0  0
  -12.1896   15.6561   71.2886 C   0  0  0  0  0  0  0  0  0  0  0  0
  -12.3486   15.5799   75.3255 Cl  0  0  0  0  0  0  0  0  0  0  0  0
   -6.5344   17.3734   68.3696 C   0  0  0  0  0  0  0  0  0  0  0  0
   -5.1310   17.1884   68.5570 C   0  0  0  0  0  0  0  0  0  0  0  0
   -6.2282   19.1878   66.9085 C   0  0  0  0  0  0  0  0  0  0  0  0
   -6.6903   20.2577   66.0908 C   0  0  0  0  0  0  0  0  0  0  0  0
   -4.2962   18.0595   67.8350 C   0  0  0  0  0  0  0  0  0  0  0  0
   -4.8139   19.0391   67.0576 C   0  0  0  0  0  0  0  0  0  0  0  0
   -5.9735   20.8263   65.4220 O   0  0  0  0  0  0  0  0  0  0  0  0
   -8.0819   20.3502   65.8985 O   0  0  0  0  0  0  0  0  0  0  0  0
   -4.6104   16.1857   69.3930 N   0  0  0  0  0  0  0  0  0  0  0  0
  1  2  2  0
  1  6  1  0
  1 11  1  0
  2  3  1  0
  3  4  1  0
  3  7  1  0
  4  9  2  0
  4  5  1  0
  5  6  1  0
  5  8  1  0
  6 10  2  0
  8 13  1  0
 11 12  3  0
 16 19  1  0
 22 23  1  0
 23 26  2  0
 23 27  1  0
 21 28  1  0
  7 18  2  0
 18 17  1  0
 17 16  2  0
 16 15  1  0
 15 14  2  0
 14  7  1  0
 13 20  2  0
 20 21  1  0
 21 24  2  0
 24 25  1  0
 25 22  2  0
 22 13  1  0
M  END

$$$$
No_291-gen_results_new/Mpro_initial_molecule_p3/2024-06-19-20-31-25/
     RDKit          3D

 28 30  0  0  0  0  0  0  0  0999 V2000
  -10.3383   15.1532   67.5971 C   0  0  0  0  0  0  0  0  0  0  0  0
  -10.7220   15.1619   68.8301 N   0  0  0  0  0  0  0  0  0  0  0  0
  -10.4044   16.2024   69.6852 N   0  0  0  0  0  0  0  0  0  0  0  0
   -9.7271   17.3221   69.2607 C   0  0  0  0  0  0  0  0  0  0  0  0
   -9.3095   17.3212   67.9557 N   0  0  0  0  0  0  0  0  0  0  0  0
   -9.5450   16.2958   67.0814 C   0  0  0  0  0  0  0  0  0  0  0  0
  -10.8644   16.0907   71.0374 C   0  0  0  0  0  0  0  0  0  0  0  0
   -8.5330   18.4792   67.4604 C   0  0  0  0  0  0  0  0  0  0  0  0
   -9.5433   18.2987   69.9938 O   0  0  0  0  0  0  0  0  0  0  0  0
   -9.1481   16.2876   65.9124 O   0  0  0  0  0  0  0  0  0  0  0  0
  -10.7304   14.0247   66.8209 C   0  0  0  0  0  0  0  0  0  0  0  0
  -11.1003   13.0895   66.2465 N   0  0  0  0  0  0  0  0  0  0  0  0
   -7.0275   18.2876   67.7219 C   0  0  0  0  0  0  0  0  0  0  0  0
  -10.0126   16.3511   72.1395 C   0  0  0  0  0  0  0  0  0  0  0  0
  -10.4883   16.2212   73.4591 C   0  0  0  0  0  0  0  0  0  0  0  0
  -11.8103   15.8022   73.6966 C   0  0  0  0  0  0  0  0  0  0  0  0
  -12.6594   15.5153   72.6113 C   0  0  0  0  0  0  0  0  0  0  0  0
  -12.1896   15.6561   71.2886 C   0  0  0  0  0  0  0  0  0  0  0  0
  -12.2484   15.6088   75.0145 O   0  0  0  0  0  0  0  0  0  0  0  0
   -6.5341   17.3731   68.3686 C   0  0  0  0  0  0  0  0  0  0  0  0
   -5.1307   17.1884   68.5569 C   0  0  0  0  0  0  0  0  0  0  0  0
   -6.2283   19.1886   66.9090 C   0  0  0  0  0  0  0  0  0  0  0  0
   -6.6906   20.2582   66.0915 C   0  0  0  0  0  0  0  0  0  0  0  0
   -4.2962   18.0598   67.8350 C   0  0  0  0  0  0  0  0  0  0  0  0
   -4.8140   19.0396   67.0579 C   0  0  0  0  0  0  0  0  0  0  0  0
   -5.9739   20.8269   65.4225 O   0  0  0  0  0  0  0  0  0  0  0  0
   -8.0821   20.3505   65.8991 O   0  0  0  0  0  0  0  0  0  0  0  0
  -12.3371   16.7919   75.7213 C   0  0  0  0  0  0  0  0  0  0  0  0
  1  2  2  0
  1  6  1  0
  1 11  1  0
  2  3  1  0
  3  4  1  0
  3  7  1  0
  4  9  2  0
  4  5  1  0
  5  6  1  0
  5  8  1  0
  6 10  2  0
  8 13  1  0
 11 12  3  0
 16 19  1  0
 22 23  1  0
 23 26  2  0
 23 27  1  0
 19 28  1  0
  7 18  2  0
 18 17  1  0
 17 16  2  0
 16 15  1  0
 15 14  2  0
 14  7  1  0
 13 20  2  0
 20 21  1  0
 21 24  2  0
 24 25  1  0
 25 22  2  0
 22 13  1  0
M  END

$$$$
No_292-gen_results_new/Mpro_initial_molecule_p3/2024-06-19-20-31-25/
     RDKit          3D

 28 30  0  0  0  0  0  0  0  0999 V2000
  -10.3383   15.1532   67.5971 C   0  0  0  0  0  0  0  0  0  0  0  0
  -10.7220   15.1619   68.8301 N   0  0  0  0  0  0  0  0  0  0  0  0
  -10.4044   16.2024   69.6852 N   0  0  0  0  0  0  0  0  0  0  0  0
   -9.7271   17.3221   69.2607 C   0  0  0  0  0  0  0  0  0  0  0  0
   -9.3095   17.3212   67.9557 N   0  0  0  0  0  0  0  0  0  0  0  0
   -9.5450   16.2958   67.0814 C   0  0  0  0  0  0  0  0  0  0  0  0
  -10.8644   16.0907   71.0374 C   0  0  0  0  0  0  0  0  0  0  0  0
   -8.5330   18.4792   67.4604 C   0  0  0  0  0  0  0  0  0  0  0  0
   -9.5433   18.2987   69.9938 O   0  0  0  0  0  0  0  0  0  0  0  0
   -9.1481   16.2876   65.9124 O   0  0  0  0  0  0  0  0  0  0  0  0
  -10.7304   14.0247   66.8209 C   0  0  0  0  0  0  0  0  0  0  0  0
  -11.1003   13.0895   66.2465 N   0  0  0  0  0  0  0  0  0  0  0  0
   -7.0275   18.2876   67.7219 C   0  0  0  0  0  0  0  0  0  0  0  0
  -10.0126   16.3511   72.1395 C   0  0  0  0  0  0  0  0  0  0  0  0
  -10.4883   16.2212   73.4591 C   0  0  0  0  0  0  0  0  0  0  0  0
  -11.8103   15.8022   73.6966 C   0  0  0  0  0  0  0  0  0  0  0  0
  -12.6594   15.5153   72.6113 C   0  0  0  0  0  0  0  0  0  0  0  0
  -12.1896   15.6561   71.2886 C   0  0  0  0  0  0  0  0  0  0  0  0
  -12.3486   15.5799   75.3255 Cl  0  0  0  0  0  0  0  0  0  0  0  0
   -6.5558   17.2018   67.9045 O   0  0  0  0  0  0  0  0  0  0  0  0
   -6.4130   19.3147   68.0692 N   0  0  0  0  0  0  0  0  0  0  0  0
   -4.9879   19.3264   68.2155 C   0  0  0  0  0  0  0  0  0  0  0  0
   -4.6408   19.3966   69.5241 C   0  0  0  0  0  0  0  0  0  0  0  0
   -3.8737   19.0539   70.1126 C   0  0  0  0  0  0  0  0  0  0  0  0
   -2.7728   18.3169   69.3391 C   0  0  0  0  0  0  0  0  0  0  0  0
   -2.9741   18.0388   68.0235 C   0  0  0  0  0  0  0  0  0  0  0  0
   -4.2000   18.4670   67.5057 C   0  0  0  0  0  0  0  0  0  0  0  0
   -3.2881   19.4802   71.4128 N   0  0  0  0  0  0  0  0  0  0  0  0
  1  2  2  0
  1  6  1  0
  1 11  1  0
  2  3  1  0
  3  4  1  0
  3  7  1  0
  4  9  2  0
  4  5  1  0
  5  6  1  0
  5  8  1  0
  6 10  2  0
  8 13  1  0
 11 12  3  0
 16 19  1  0
 13 20  2  0
 13 21  1  0
 21 22  1  0
 24 28  1  0
 22 23  2  0
 23 24  1  0
 24 25  2  0
 25 26  1  0
 26 27  2  0
 27 22  1  0
  7 18  2  0
 18 17  1  0
 17 16  2  0
 16 15  1  0
 15 14  2  0
 14  7  1  0
M  END

$$$$
No_293-gen_results_new/Mpro_initial_molecule_p3/2024-06-19-20-31-25/
     RDKit          3D

 28 30  0  0  0  0  0  0  0  0999 V2000
  -10.3383   15.1532   67.5971 C   0  0  0  0  0  0  0  0  0  0  0  0
  -10.7220   15.1619   68.8301 N   0  0  0  0  0  0  0  0  0  0  0  0
  -10.4044   16.2024   69.6852 N   0  0  0  0  0  0  0  0  0  0  0  0
   -9.7271   17.3221   69.2607 C   0  0  0  0  0  0  0  0  0  0  0  0
   -9.3095   17.3212   67.9557 N   0  0  0  0  0  0  0  0  0  0  0  0
   -9.5450   16.2958   67.0814 C   0  0  0  0  0  0  0  0  0  0  0  0
  -10.8644   16.0907   71.0374 C   0  0  0  0  0  0  0  0  0  0  0  0
   -8.5330   18.4792   67.4604 C   0  0  0  0  0  0  0  0  0  0  0  0
   -9.5433   18.2987   69.9938 O   0  0  0  0  0  0  0  0  0  0  0  0
   -9.1481   16.2876   65.9124 O   0  0  0  0  0  0  0  0  0  0  0  0
  -10.7304   14.0247   66.8209 C   0  0  0  0  0  0  0  0  0  0  0  0
  -11.1003   13.0895   66.2465 N   0  0  0  0  0  0  0  0  0  0  0  0
   -7.0275   18.2876   67.7219 C   0  0  0  0  0  0  0  0  0  0  0  0
  -10.0126   16.3511   72.1395 C   0  0  0  0  0  0  0  0  0  0  0  0
  -10.4883   16.2212   73.4591 C   0  0  0  0  0  0  0  0  0  0  0  0
  -11.8103   15.8022   73.6966 C   0  0  0  0  0  0  0  0  0  0  0  0
  -12.6594   15.5153   72.6113 C   0  0  0  0  0  0  0  0  0  0  0  0
  -12.1896   15.6561   71.2886 C   0  0  0  0  0  0  0  0  0  0  0  0
  -12.2768   15.6000   75.1088 C   0  0  0  0  0  0  0  0  0  0  0  0
   -6.5341   17.3729   68.3685 C   0  0  0  0  0  0  0  0  0  0  0  0
   -5.1308   17.1882   68.5568 C   0  0  0  0  0  0  0  0  0  0  0  0
   -6.2282   19.1886   66.9092 C   0  0  0  0  0  0  0  0  0  0  0  0
   -4.8273   19.0035   67.0391 C   0  0  0  0  0  0  0  0  0  0  0  0
   -4.4253   15.9373   69.4723 Cl  0  0  0  0  0  0  0  0  0  0  0  0
   -4.3026   17.9576   67.7744 C   0  0  0  0  0  0  0  0  0  0  0  0
  -12.3538   14.5929   75.5992 O   0  0  0  0  0  0  0  0  0  0  0  0
  -12.1993   16.7298   75.8912 N   0  0  0  0  0  0  0  0  0  0  0  0
  -13.9402   15.0198   72.8351 F   0  0  0  0  0  0  0  0  0  0  0  0
  1  2  2  0
  1  6  1  0
  1 11  1  0
  2  3  1  0
  3  4  1  0
  3  7  1  0
  4  9  2  0
  4  5  1  0
  5  6  1  0
  5  8  1  0
  6 10  2  0
  8 13  1  0
 11 12  3  0
 16 19  1  0
 21 24  1  0
 19 26  2  0
 19 27  1  0
 17 28  1  0
 13 20  2  0
 20 21  1  0
 21 25  2  0
 25 23  1  0
 23 22  2  0
 22 13  1  0
  7 18  2  0
 18 17  1  0
 17 16  2  0
 16 15  1  0
 15 14  2  0
 14  7  1  0
M  END

$$$$
No_294-gen_results_new/Mpro_initial_molecule_p3/2024-06-19-20-31-25/
     RDKit          3D

 28 30  0  0  0  0  0  0  0  0999 V2000
  -10.3383   15.1532   67.5971 C   0  0  0  0  0  0  0  0  0  0  0  0
  -10.7220   15.1619   68.8301 N   0  0  0  0  0  0  0  0  0  0  0  0
  -10.4044   16.2024   69.6852 N   0  0  0  0  0  0  0  0  0  0  0  0
   -9.7271   17.3221   69.2607 C   0  0  0  0  0  0  0  0  0  0  0  0
   -9.3095   17.3212   67.9557 N   0  0  0  0  0  0  0  0  0  0  0  0
   -9.5450   16.2958   67.0814 C   0  0  0  0  0  0  0  0  0  0  0  0
  -10.8644   16.0907   71.0374 C   0  0  0  0  0  0  0  0  0  0  0  0
   -8.5330   18.4792   67.4604 C   0  0  0  0  0  0  0  0  0  0  0  0
   -9.5433   18.2987   69.9938 O   0  0  0  0  0  0  0  0  0  0  0  0
   -9.1481   16.2876   65.9124 O   0  0  0  0  0  0  0  0  0  0  0  0
  -10.7304   14.0247   66.8209 C   0  0  0  0  0  0  0  0  0  0  0  0
  -11.1003   13.0895   66.2465 N   0  0  0  0  0  0  0  0  0  0  0  0
   -7.0275   18.2876   67.7219 C   0  0  0  0  0  0  0  0  0  0  0  0
  -10.0126   16.3511   72.1395 C   0  0  0  0  0  0  0  0  0  0  0  0
  -10.4883   16.2212   73.4591 C   0  0  0  0  0  0  0  0  0  0  0  0
  -11.8103   15.8022   73.6966 C   0  0  0  0  0  0  0  0  0  0  0  0
  -12.6594   15.5153   72.6113 C   0  0  0  0  0  0  0  0  0  0  0  0
  -12.1896   15.6561   71.2886 C   0  0  0  0  0  0  0  0  0  0  0  0
  -12.2768   15.6000   75.1088 C   0  0  0  0  0  0  0  0  0  0  0  0
   -6.5341   17.3729   68.3685 C   0  0  0  0  0  0  0  0  0  0  0  0
   -5.0715   17.5390   68.5416 C   0  0  0  0  0  0  0  0  0  0  0  0
   -4.2817   18.2416   67.7594 C   0  0  0  0  0  0  0  0  0  0  0  0
   -4.9171   19.1696   66.9510 C   0  0  0  0  0  0  0  0  0  0  0  0
   -6.3135   19.1610   66.8064 C   0  0  0  0  0  0  0  0  0  0  0  0
  -12.3526   14.5927   75.5997 O   0  0  0  0  0  0  0  0  0  0  0  0
  -12.8122   16.6655   75.6555 O   0  0  0  0  0  0  0  0  0  0  0  0
  -14.3021   14.8790   72.8346 Cl  0  0  0  0  0  0  0  0  0  0  0  0
   -4.1507   20.0272   66.1819 N   0  0  0  0  0  0  0  0  0  0  0  0
  1  2  2  0
  1  6  1  0
  1 11  1  0
  2  3  1  0
  3  4  1  0
  3  7  1  0
  4  9  2  0
  4  5  1  0
  5  6  1  0
  5  8  1  0
  6 10  2  0
  8 13  1  0
 11 12  3  0
 16 19  1  0
 19 25  2  0
 19 26  1  0
 17 27  1  0
 23 28  1  0
 13 20  2  0
 20 21  1  0
 21 22  2  0
 22 23  1  0
 23 24  2  0
 24 13  1  0
  7 18  2  0
 18 17  1  0
 17 16  2  0
 16 15  1  0
 15 14  2  0
 14  7  1  0
M  END

$$$$
No_295-gen_results_new/Mpro_initial_molecule_p3/2024-06-19-20-31-25/
     RDKit          3D

 28 30  0  0  0  0  0  0  0  0999 V2000
  -10.3383   15.1532   67.5971 C   0  0  0  0  0  0  0  0  0  0  0  0
  -10.7220   15.1619   68.8301 N   0  0  0  0  0  0  0  0  0  0  0  0
  -10.4044   16.2024   69.6852 N   0  0  0  0  0  0  0  0  0  0  0  0
   -9.7271   17.3221   69.2607 C   0  0  0  0  0  0  0  0  0  0  0  0
   -9.3095   17.3212   67.9557 N   0  0  0  0  0  0  0  0  0  0  0  0
   -9.5450   16.2958   67.0814 C   0  0  0  0  0  0  0  0  0  0  0  0
  -10.8644   16.0907   71.0374 C   0  0  0  0  0  0  0  0  0  0  0  0
   -8.5330   18.4792   67.4604 C   0  0  0  0  0  0  0  0  0  0  0  0
   -9.5433   18.2987   69.9938 O   0  0  0  0  0  0  0  0  0  0  0  0
   -9.1481   16.2876   65.9124 O   0  0  0  0  0  0  0  0  0  0  0  0
  -10.7304   14.0247   66.8209 C   0  0  0  0  0  0  0  0  0  0  0  0
  -11.1003   13.0895   66.2465 N   0  0  0  0  0  0  0  0  0  0  0  0
   -7.0275   18.2876   67.7219 C   0  0  0  0  0  0  0  0  0  0  0  0
  -10.0126   16.3511   72.1395 C   0  0  0  0  0  0  0  0  0  0  0  0
  -10.4883   16.2212   73.4591 C   0  0  0  0  0  0  0  0  0  0  0  0
  -11.8103   15.8022   73.6966 C   0  0  0  0  0  0  0  0  0  0  0  0
  -12.6594   15.5153   72.6113 C   0  0  0  0  0  0  0  0  0  0  0  0
  -12.1896   15.6561   71.2886 C   0  0  0  0  0  0  0  0  0  0  0  0
  -12.3486   15.5799   75.3255 Cl  0  0  0  0  0  0  0  0  0  0  0  0
   -6.4523   19.3079   67.8835 C   0  0  0  0  0  0  0  0  0  0  0  0
   -6.2032   19.5449   69.0280 C   0  0  0  0  0  0  0  0  0  0  0  0
   -5.6840   18.3857   69.7844 C   0  0  0  0  0  0  0  0  0  0  0  0
   -6.2430   17.0342   69.3917 C   0  0  0  0  0  0  0  0  0  0  0  0
   -7.0139   17.0490   68.3797 C   0  0  0  0  0  0  0  0  0  0  0  0
   -6.4747   20.4723   66.8815 C   0  0  0  0  0  0  0  0  0  0  0  0
   -7.3579   20.5388   66.0318 O   0  0  0  0  0  0  0  0  0  0  0  0
   -5.6847   21.4067   67.0005 O   0  0  0  0  0  0  0  0  0  0  0  0
   -4.9367   18.4222   71.1714 C   0  0  0  0  0  0  0  0  0  0  0  0
  1  2  2  0
  1  6  1  0
  1 11  1  0
  2  3  1  0
  3  4  1  0
  3  7  1  0
  4  9  2  0
  4  5  1  0
  5  6  1  0
  5  8  1  0
  6 10  2  0
  8 13  1  0
 11 12  3  0
 16 19  1  0
 20 25  1  0
 25 26  2  0
 25 27  1  0
 22 28  1  0
 13 20  2  0
 20 21  1  0
 21 22  2  0
 22 23  1  0
 23 24  2  0
 24 13  1  0
  7 18  2  0
 18 17  1  0
 17 16  2  0
 16 15  1  0
 15 14  2  0
 14  7  1  0
M  END

$$$$
No_296-gen_results_new/Mpro_initial_molecule_p3/2024-06-19-20-31-25/
     RDKit          3D

 28 30  0  0  0  0  0  0  0  0999 V2000
  -10.3383   15.1532   67.5971 C   0  0  0  0  0  0  0  0  0  0  0  0
  -10.7220   15.1619   68.8301 N   0  0  0  0  0  0  0  0  0  0  0  0
  -10.4044   16.2024   69.6852 N   0  0  0  0  0  0  0  0  0  0  0  0
   -9.7271   17.3221   69.2607 C   0  0  0  0  0  0  0  0  0  0  0  0
   -9.3095   17.3212   67.9557 N   0  0  0  0  0  0  0  0  0  0  0  0
   -9.5450   16.2958   67.0814 C   0  0  0  0  0  0  0  0  0  0  0  0
  -10.8644   16.0907   71.0374 C   0  0  0  0  0  0  0  0  0  0  0  0
   -8.5330   18.4792   67.4604 C   0  0  0  0  0  0  0  0  0  0  0  0
   -9.5433   18.2987   69.9938 O   0  0  0  0  0  0  0  0  0  0  0  0
   -9.1481   16.2876   65.9124 O   0  0  0  0  0  0  0  0  0  0  0  0
  -10.7304   14.0247   66.8209 C   0  0  0  0  0  0  0  0  0  0  0  0
  -11.1003   13.0895   66.2465 N   0  0  0  0  0  0  0  0  0  0  0  0
   -7.0275   18.2876   67.7219 C   0  0  0  0  0  0  0  0  0  0  0  0
  -10.0126   16.3511   72.1395 C   0  0  0  0  0  0  0  0  0  0  0  0
  -10.4883   16.2212   73.4591 C   0  0  0  0  0  0  0  0  0  0  0  0
  -11.8103   15.8022   73.6966 C   0  0  0  0  0  0  0  0  0  0  0  0
  -12.6594   15.5153   72.6113 C   0  0  0  0  0  0  0  0  0  0  0  0
  -12.1896   15.6561   71.2886 C   0  0  0  0  0  0  0  0  0  0  0  0
  -12.2768   15.6000   75.1088 C   0  0  0  0  0  0  0  0  0  0  0  0
   -6.4522   19.3092   67.8826 C   0  0  0  0  0  0  0  0  0  0  0  0
  -12.3537   14.5923   75.5994 O   0  0  0  0  0  0  0  0  0  0  0  0
  -12.4205   16.7483   75.8013 N   0  0  0  0  0  0  0  0  0  0  0  0
   -4.9616   19.3660   67.8940 C   0  0  0  0  0  0  0  0  0  0  0  0
   -4.2445   20.6406   68.0464 C   0  0  0  0  0  0  0  0  0  0  0  0
   -2.7767   20.4510   67.8298 C   0  0  0  0  0  0  0  0  0  0  0  0
   -2.2058   19.1431   67.6678 C   0  0  0  0  0  0  0  0  0  0  0  0
   -2.9704   17.9515   67.5456 C   0  0  0  0  0  0  0  0  0  0  0  0
   -4.3615   18.0877   67.6568 C   0  0  0  0  0  0  0  0  0  0  0  0
  1  2  2  0
  1  6  1  0
  1 11  1  0
  2  3  1  0
  3  4  1  0
  3  7  1  0
  4  9  2  0
  4  5  1  0
  5  6  1  0
  5  8  1  0
  6 10  2  0
  8 13  1  0
 11 12  3  0
 16 19  1  0
 13 20  1  0
 19 21  2  0
 19 22  1  0
 20 23  1  0
 23 24  2  0
 24 25  1  0
 25 26  2  0
 26 27  1  0
 27 28  2  0
 28 23  1  0
  7 18  2  0
 18 17  1  0
 17 16  2  0
 16 15  1  0
 15 14  2  0
 14  7  1  0
M  END

$$$$
No_297-gen_results_new/Mpro_initial_molecule_p3/2024-06-19-20-31-25/
     RDKit          3D

 28 30  0  0  0  0  0  0  0  0999 V2000
  -10.3383   15.1532   67.5971 C   0  0  0  0  0  0  0  0  0  0  0  0
  -10.7220   15.1619   68.8301 N   0  0  0  0  0  0  0  0  0  0  0  0
  -10.4044   16.2024   69.6852 N   0  0  0  0  0  0  0  0  0  0  0  0
   -9.7271   17.3221   69.2607 C   0  0  0  0  0  0  0  0  0  0  0  0
   -9.3095   17.3212   67.9557 N   0  0  0  0  0  0  0  0  0  0  0  0
   -9.5450   16.2958   67.0814 C   0  0  0  0  0  0  0  0  0  0  0  0
  -10.8644   16.0907   71.0374 C   0  0  0  0  0  0  0  0  0  0  0  0
   -8.5330   18.4792   67.4604 C   0  0  0  0  0  0  0  0  0  0  0  0
   -9.5433   18.2987   69.9938 O   0  0  0  0  0  0  0  0  0  0  0  0
   -9.1481   16.2876   65.9124 O   0  0  0  0  0  0  0  0  0  0  0  0
  -10.7304   14.0247   66.8209 C   0  0  0  0  0  0  0  0  0  0  0  0
  -11.1003   13.0895   66.2465 N   0  0  0  0  0  0  0  0  0  0  0  0
   -7.0275   18.2876   67.7219 C   0  0  0  0  0  0  0  0  0  0  0  0
  -10.0126   16.3511   72.1395 C   0  0  0  0  0  0  0  0  0  0  0  0
  -10.4883   16.2212   73.4591 C   0  0  0  0  0  0  0  0  0  0  0  0
  -11.8103   15.8022   73.6966 C   0  0  0  0  0  0  0  0  0  0  0  0
  -12.6594   15.5153   72.6113 C   0  0  0  0  0  0  0  0  0  0  0  0
  -12.1896   15.6561   71.2886 C   0  0  0  0  0  0  0  0  0  0  0  0
  -12.2768   15.6000   75.1088 C   0  0  0  0  0  0  0  0  0  0  0  0
   -6.5341   17.3729   68.3685 C   0  0  0  0  0  0  0  0  0  0  0  0
   -5.1249   17.1827   68.5818 C   0  0  0  0  0  0  0  0  0  0  0  0
   -4.4393   18.0516   67.8378 C   0  0  0  0  0  0  0  0  0  0  0  0
   -4.8689   19.0478   67.0695 C   0  0  0  0  0  0  0  0  0  0  0  0
   -6.2627   19.1643   66.9261 C   0  0  0  0  0  0  0  0  0  0  0  0
  -12.9868   16.5587   75.4318 F   0  0  0  0  0  0  0  0  0  0  0  0
  -11.2720   15.5027   75.8802 F   0  0  0  0  0  0  0  0  0  0  0  0
  -13.0961   14.4886   74.9601 F   0  0  0  0  0  0  0  0  0  0  0  0
   -4.0588   19.9374   66.3748 N   0  0  0  0  0  0  0  0  0  0  0  0
  1  2  2  0
  1  6  1  0
  1 11  1  0
  2  3  1  0
  3  4  1  0
  3  7  1  0
  4  9  2  0
  4  5  1  0
  5  6  1  0
  5  8  1  0
  6 10  2  0
  8 13  1  0
 11 12  3  0
 16 19  1  0
 19 25  1  0
 19 26  1  0
 19 27  1  0
 23 28  1  0
 13 20  2  0
 20 21  1  0
 21 22  2  0
 22 23  1  0
 23 24  2  0
 24 13  1  0
  7 18  2  0
 18 17  1  0
 17 16  2  0
 16 15  1  0
 15 14  2  0
 14  7  1  0
M  END

$$$$
No_298-gen_results_new/Mpro_initial_molecule_p3/2024-06-19-20-31-25/
     RDKit          3D

 28 30  0  0  0  0  0  0  0  0999 V2000
  -10.3383   15.1532   67.5971 C   0  0  0  0  0  0  0  0  0  0  0  0
  -10.7220   15.1619   68.8301 N   0  0  0  0  0  0  0  0  0  0  0  0
  -10.4044   16.2024   69.6852 N   0  0  0  0  0  0  0  0  0  0  0  0
   -9.7271   17.3221   69.2607 C   0  0  0  0  0  0  0  0  0  0  0  0
   -9.3095   17.3212   67.9557 N   0  0  0  0  0  0  0  0  0  0  0  0
   -9.5450   16.2958   67.0814 C   0  0  0  0  0  0  0  0  0  0  0  0
  -10.8644   16.0907   71.0374 C   0  0  0  0  0  0  0  0  0  0  0  0
   -8.5330   18.4792   67.4604 C   0  0  0  0  0  0  0  0  0  0  0  0
   -9.5433   18.2987   69.9938 O   0  0  0  0  0  0  0  0  0  0  0  0
   -9.1481   16.2876   65.9124 O   0  0  0  0  0  0  0  0  0  0  0  0
  -10.7304   14.0247   66.8209 C   0  0  0  0  0  0  0  0  0  0  0  0
  -11.1003   13.0895   66.2465 N   0  0  0  0  0  0  0  0  0  0  0  0
   -7.0275   18.2876   67.7219 C   0  0  0  0  0  0  0  0  0  0  0  0
  -10.0126   16.3511   72.1395 C   0  0  0  0  0  0  0  0  0  0  0  0
  -10.4883   16.2212   73.4591 C   0  0  0  0  0  0  0  0  0  0  0  0
  -11.8103   15.8022   73.6966 C   0  0  0  0  0  0  0  0  0  0  0  0
  -12.6594   15.5153   72.6113 C   0  0  0  0  0  0  0  0  0  0  0  0
  -12.1896   15.6561   71.2886 C   0  0  0  0  0  0  0  0  0  0  0  0
  -12.2768   15.6000   75.1088 C   0  0  0  0  0  0  0  0  0  0  0  0
   -6.3059   19.3590   66.9154 C   0  0  0  0  0  0  0  0  0  0  0  0
   -6.9578   20.4797   66.4322 C   0  0  0  0  0  0  0  0  0  0  0  0
   -8.3628   20.5494   66.3744 C   0  0  0  0  0  0  0  0  0  0  0  0
   -9.1835   19.4925   66.8327 C   0  0  0  0  0  0  0  0  0  0  0  0
  -11.9588   16.3229   75.9328 O   0  0  0  0  0  0  0  0  0  0  0  0
  -13.1729   14.8323   75.3289 O   0  0  0  0  0  0  0  0  0  0  0  0
   -5.8689   21.7148   65.8671 Cl  0  0  0  0  0  0  0  0  0  0  0  0
   -4.9374   19.2083   67.2066 O   0  0  0  0  0  0  0  0  0  0  0  0
   -4.3350   18.2393   67.8604 C   0  0  0  0  0  0  0  0  0  0  0  0
  1  2  2  0
  1  6  1  0
  1 11  1  0
  2  3  1  0
  3  4  1  0
  3  7  1  0
  4  9  2  0
  4  5  1  0
  5  6  1  0
  5  8  1  0
  6 10  2  0
 11 12  3  0
 16 19  1  0
 19 24  2  0
 19 25  1  0
 21 26  1  0
 20 27  1  0
 27 28  1  0
  8 13  2  0
 13 20  1  0
 20 21  2  0
 21 22  1  0
 22 23  2  0
 23  8  1  0
  7 18  2  0
 18 17  1  0
 17 16  2  0
 16 15  1  0
 15 14  2  0
 14  7  1  0
M  END

$$$$
No_299-gen_results_new/Mpro_initial_molecule_p3/2024-06-19-20-31-25/
     RDKit          3D

 28 30  0  0  0  0  0  0  0  0999 V2000
  -10.3383   15.1532   67.5971 C   0  0  0  0  0  0  0  0  0  0  0  0
  -10.7220   15.1619   68.8301 N   0  0  0  0  0  0  0  0  0  0  0  0
  -10.4044   16.2024   69.6852 N   0  0  0  0  0  0  0  0  0  0  0  0
   -9.7271   17.3221   69.2607 C   0  0  0  0  0  0  0  0  0  0  0  0
   -9.3095   17.3212   67.9557 N   0  0  0  0  0  0  0  0  0  0  0  0
   -9.5450   16.2958   67.0814 C   0  0  0  0  0  0  0  0  0  0  0  0
  -10.8644   16.0907   71.0374 C   0  0  0  0  0  0  0  0  0  0  0  0
   -8.5330   18.4792   67.4604 C   0  0  0  0  0  0  0  0  0  0  0  0
   -9.5433   18.2987   69.9938 O   0  0  0  0  0  0  0  0  0  0  0  0
   -9.1481   16.2876   65.9124 O   0  0  0  0  0  0  0  0  0  0  0  0
  -10.7304   14.0247   66.8209 C   0  0  0  0  0  0  0  0  0  0  0  0
  -11.1003   13.0895   66.2465 N   0  0  0  0  0  0  0  0  0  0  0  0
   -7.0275   18.2876   67.7219 C   0  0  0  0  0  0  0  0  0  0  0  0
  -10.0126   16.3511   72.1395 C   0  0  0  0  0  0  0  0  0  0  0  0
  -10.4883   16.2212   73.4591 C   0  0  0  0  0  0  0  0  0  0  0  0
  -11.8103   15.8022   73.6966 C   0  0  0  0  0  0  0  0  0  0  0  0
  -12.6594   15.5153   72.6113 C   0  0  0  0  0  0  0  0  0  0  0  0
  -12.1896   15.6561   71.2886 C   0  0  0  0  0  0  0  0  0  0  0  0
  -12.3486   15.5799   75.3255 Cl  0  0  0  0  0  0  0  0  0  0  0  0
   -6.3058   19.3592   66.9157 C   0  0  0  0  0  0  0  0  0  0  0  0
   -5.0306   19.3685   67.0004 N   0  0  0  0  0  0  0  0  0  0  0  0
   -6.8756   20.4378   66.5351 O   0  0  0  0  0  0  0  0  0  0  0  0
   -4.1505   20.3438   66.4096 C   0  0  0  0  0  0  0  0  0  0  0  0
   -2.7564   20.1087   66.7371 C   0  0  0  0  0  0  0  0  0  0  0  0
   -1.9152   21.1565   66.1610 C   0  0  0  0  0  0  0  0  0  0  0  0
   -2.4696   22.1167   65.4065 N   0  0  0  0  0  0  0  0  0  0  0  0
   -3.8093   22.2341   65.1756 C   0  0  0  0  0  0  0  0  0  0  0  0
   -4.6219   21.3742   65.6660 C   0  0  0  0  0  0  0  0  0  0  0  0
  1  2  2  0
  1  6  1  0
  1 11  1  0
  2  3  1  0
  3  4  1  0
  3  7  1  0
  4  9  2  0
  4  5  1  0
  5  6  1  0
  5  8  1  0
  6 10  2  0
  8 13  1  0
 11 12  3  0
 16 19  1  0
 13 20  1  0
 20 21  1  0
 20 22  2  0
 21 23  1  0
 23 24  2  0
 24 25  1  0
 25 26  2  0
 26 27  1  0
 27 28  2  0
 28 23  1  0
  7 18  2  0
 18 17  1  0
 17 16  2  0
 16 15  1  0
 15 14  2  0
 14  7  1  0
M  END

$$$$
No_300-gen_results_new/Mpro_initial_molecule_p3/2024-06-19-20-31-25/
     RDKit          3D

 28 30  0  0  0  0  0  0  0  0999 V2000
  -10.3383   15.1532   67.5971 C   0  0  0  0  0  0  0  0  0  0  0  0
  -10.7220   15.1619   68.8301 N   0  0  0  0  0  0  0  0  0  0  0  0
  -10.4044   16.2024   69.6852 N   0  0  0  0  0  0  0  0  0  0  0  0
   -9.7271   17.3221   69.2607 C   0  0  0  0  0  0  0  0  0  0  0  0
   -9.3095   17.3212   67.9557 N   0  0  0  0  0  0  0  0  0  0  0  0
   -9.5450   16.2958   67.0814 C   0  0  0  0  0  0  0  0  0  0  0  0
  -10.8644   16.0907   71.0374 C   0  0  0  0  0  0  0  0  0  0  0  0
   -8.5330   18.4792   67.4604 C   0  0  0  0  0  0  0  0  0  0  0  0
   -9.5433   18.2987   69.9938 O   0  0  0  0  0  0  0  0  0  0  0  0
   -9.1481   16.2876   65.9124 O   0  0  0  0  0  0  0  0  0  0  0  0
  -10.7304   14.0247   66.8209 C   0  0  0  0  0  0  0  0  0  0  0  0
  -11.1003   13.0895   66.2465 N   0  0  0  0  0  0  0  0  0  0  0  0
   -7.0275   18.2876   67.7219 C   0  0  0  0  0  0  0  0  0  0  0  0
  -10.0126   16.3511   72.1395 C   0  0  0  0  0  0  0  0  0  0  0  0
  -10.4883   16.2212   73.4591 C   0  0  0  0  0  0  0  0  0  0  0  0
  -11.8103   15.8022   73.6966 C   0  0  0  0  0  0  0  0  0  0  0  0
  -12.6594   15.5153   72.6113 C   0  0  0  0  0  0  0  0  0  0  0  0
  -12.1896   15.6561   71.2886 C   0  0  0  0  0  0  0  0  0  0  0  0
  -12.3486   15.5799   75.3255 Cl  0  0  0  0  0  0  0  0  0  0  0  0
   -6.3058   19.3592   66.9157 C   0  0  0  0  0  0  0  0  0  0  0  0
   -4.9894   19.4433   66.9687 C   0  0  0  0  0  0  0  0  0  0  0  0
   -4.2885   20.4306   66.2890 C   0  0  0  0  0  0  0  0  0  0  0  0
   -4.9684   21.5146   65.8589 C   0  0  0  0  0  0  0  0  0  0  0  0
   -6.3744   21.4843   65.8347 C   0  0  0  0  0  0  0  0  0  0  0  0
   -7.0549   20.4513   66.4029 C   0  0  0  0  0  0  0  0  0  0  0  0
   -4.1169   22.6202   65.1760 C   0  0  0  0  0  0  0  0  0  0  0  0
   -4.0661   22.6120   63.9338 O   0  0  0  0  0  0  0  0  0  0  0  0
   -3.3996   23.2528   65.8360 O   0  0  0  0  0  0  0  0  0  0  0  0
  1  2  2  0
  1  6  1  0
  1 11  1  0
  2  3  1  0
  3  4  1  0
  3  7  1  0
  4  9  2  0
  4  5  1  0
  5  6  1  0
  5  8  1  0
  6 10  2  0
  8 13  1  0
 11 12  3  0
 16 19  1  0
 13 20  1  0
 23 26  1  0
 26 27  2  0
 26 28  1  0
 20 21  2  0
 21 22  1  0
 22 23  2  0
 23 24  1  0
 24 25  2  0
 25 20  1  0
  7 18  2  0
 18 17  1  0
 17 16  2  0
 16 15  1  0
 15 14  2  0
 14  7  1  0
M  END

$$$$
No_301-gen_results_new/Mpro_initial_molecule_p3/2024-06-19-20-31-25/
     RDKit          3D

 28 30  0  0  0  0  0  0  0  0999 V2000
  -10.3383   15.1532   67.5971 C   0  0  0  0  0  0  0  0  0  0  0  0
  -10.7220   15.1619   68.8301 N   0  0  0  0  0  0  0  0  0  0  0  0
  -10.4044   16.2024   69.6852 N   0  0  0  0  0  0  0  0  0  0  0  0
   -9.7271   17.3221   69.2607 C   0  0  0  0  0  0  0  0  0  0  0  0
   -9.3095   17.3212   67.9557 N   0  0  0  0  0  0  0  0  0  0  0  0
   -9.5450   16.2958   67.0814 C   0  0  0  0  0  0  0  0  0  0  0  0
  -10.8644   16.0907   71.0374 C   0  0  0  0  0  0  0  0  0  0  0  0
   -8.5330   18.4792   67.4604 C   0  0  0  0  0  0  0  0  0  0  0  0
   -9.5433   18.2987   69.9938 O   0  0  0  0  0  0  0  0  0  0  0  0
   -9.1481   16.2876   65.9124 O   0  0  0  0  0  0  0  0  0  0  0  0
  -10.7304   14.0247   66.8209 C   0  0  0  0  0  0  0  0  0  0  0  0
  -11.1003   13.0895   66.2465 N   0  0  0  0  0  0  0  0  0  0  0  0
   -7.0275   18.2876   67.7219 C   0  0  0  0  0  0  0  0  0  0  0  0
  -10.0126   16.3511   72.1395 C   0  0  0  0  0  0  0  0  0  0  0  0
  -10.4883   16.2212   73.4591 C   0  0  0  0  0  0  0  0  0  0  0  0
  -11.8103   15.8022   73.6966 C   0  0  0  0  0  0  0  0  0  0  0  0
  -12.6594   15.5153   72.6113 C   0  0  0  0  0  0  0  0  0  0  0  0
  -12.1896   15.6561   71.2886 C   0  0  0  0  0  0  0  0  0  0  0  0
  -12.2768   15.6000   75.1088 C   0  0  0  0  0  0  0  0  0  0  0  0
   -6.3059   19.3590   66.9154 C   0  0  0  0  0  0  0  0  0  0  0  0
   -4.9893   19.4432   66.9685 C   0  0  0  0  0  0  0  0  0  0  0  0
   -4.2885   20.4305   66.2887 C   0  0  0  0  0  0  0  0  0  0  0  0
   -2.9958   20.4493   66.3426 F   0  0  0  0  0  0  0  0  0  0  0  0
   -5.0018   21.5347   65.6567 C   0  0  0  0  0  0  0  0  0  0  0  0
   -6.3798   21.4502   65.6560 C   0  0  0  0  0  0  0  0  0  0  0  0
   -7.0900   20.3991   66.2865 C   0  0  0  0  0  0  0  0  0  0  0  0
  -12.3531   14.5920   75.5994 O   0  0  0  0  0  0  0  0  0  0  0  0
  -12.4209   16.7480   75.8014 N   0  0  0  0  0  0  0  0  0  0  0  0
  1  2  2  0
  1  6  1  0
  1 11  1  0
  2  3  1  0
  3  4  1  0
  3  7  1  0
  4  9  2  0
  4  5  1  0
  5  6  1  0
  5  8  1  0
  6 10  2  0
  8 13  1  0
 11 12  3  0
 16 19  1  0
 13 20  1  0
 22 23  1  0
 19 27  2  0
 19 28  1  0
 20 21  2  0
 21 22  1  0
 22 24  2  0
 24 25  1  0
 25 26  2  0
 26 20  1  0
  7 18  2  0
 18 17  1  0
 17 16  2  0
 16 15  1  0
 15 14  2  0
 14  7  1  0
M  END

$$$$
No_302-gen_results_new/Mpro_initial_molecule_p3/2024-06-19-20-31-25/
     RDKit          3D

 28 30  0  0  0  0  0  0  0  0999 V2000
  -10.3383   15.1532   67.5971 C   0  0  0  0  0  0  0  0  0  0  0  0
  -10.7220   15.1619   68.8301 N   0  0  0  0  0  0  0  0  0  0  0  0
  -10.4044   16.2024   69.6852 N   0  0  0  0  0  0  0  0  0  0  0  0
   -9.7271   17.3221   69.2607 C   0  0  0  0  0  0  0  0  0  0  0  0
   -9.3095   17.3212   67.9557 N   0  0  0  0  0  0  0  0  0  0  0  0
   -9.5450   16.2958   67.0814 C   0  0  0  0  0  0  0  0  0  0  0  0
  -10.8644   16.0907   71.0374 C   0  0  0  0  0  0  0  0  0  0  0  0
   -8.5330   18.4792   67.4604 C   0  0  0  0  0  0  0  0  0  0  0  0
   -9.5433   18.2987   69.9938 O   0  0  0  0  0  0  0  0  0  0  0  0
   -9.1481   16.2876   65.9124 O   0  0  0  0  0  0  0  0  0  0  0  0
  -10.7304   14.0247   66.8209 C   0  0  0  0  0  0  0  0  0  0  0  0
  -11.1003   13.0895   66.2465 N   0  0  0  0  0  0  0  0  0  0  0  0
   -7.0275   18.2876   67.7219 C   0  0  0  0  0  0  0  0  0  0  0  0
  -10.0126   16.3511   72.1395 C   0  0  0  0  0  0  0  0  0  0  0  0
  -10.4883   16.2212   73.4591 C   0  0  0  0  0  0  0  0  0  0  0  0
  -11.8103   15.8022   73.6966 C   0  0  0  0  0  0  0  0  0  0  0  0
  -12.6594   15.5153   72.6113 C   0  0  0  0  0  0  0  0  0  0  0  0
  -12.1896   15.6561   71.2886 C   0  0  0  0  0  0  0  0  0  0  0  0
  -12.2768   15.6000   75.1088 C   0  0  0  0  0  0  0  0  0  0  0  0
   -6.5341   17.3729   68.3685 C   0  0  0  0  0  0  0  0  0  0  0  0
   -5.1308   17.1882   68.5568 C   0  0  0  0  0  0  0  0  0  0  0  0
   -6.2282   19.1886   66.9092 C   0  0  0  0  0  0  0  0  0  0  0  0
   -4.8273   19.0035   67.0391 C   0  0  0  0  0  0  0  0  0  0  0  0
   -4.3060   18.0195   67.7979 C   0  0  0  0  0  0  0  0  0  0  0  0
  -12.3528   14.5927   75.5997 O   0  0  0  0  0  0  0  0  0  0  0  0
  -12.8124   16.6655   75.6553 O   0  0  0  0  0  0  0  0  0  0  0  0
  -13.9690   15.0116   72.8052 O   0  0  0  0  0  0  0  0  0  0  0  0
   -6.8561   20.2666   66.0653 C   0  0  0  0  0  0  0  0  0  0  0  0
  1  2  2  0
  1  6  1  0
  1 11  1  0
  2  3  1  0
  3  4  1  0
  3  7  1  0
  4  9  2  0
  4  5  1  0
  5  6  1  0
  5  8  1  0
  6 10  2  0
  8 13  1  0
 11 12  3  0
 16 19  1  0
 19 25  2  0
 19 26  1  0
 17 27  1  0
 22 28  1  0
 13 20  2  0
 20 21  1  0
 21 24  2  0
 24 23  1  0
 23 22  2  0
 22 13  1  0
  7 18  2  0
 18 17  1  0
 17 16  2  0
 16 15  1  0
 15 14  2  0
 14  7  1  0
M  END

$$$$
No_303-gen_results_new/Mpro_initial_molecule_p3/2024-06-19-20-31-25/
     RDKit          3D

 28 30  0  0  0  0  0  0  0  0999 V2000
  -10.3383   15.1532   67.5971 C   0  0  0  0  0  0  0  0  0  0  0  0
  -10.7220   15.1619   68.8301 N   0  0  0  0  0  0  0  0  0  0  0  0
  -10.4044   16.2024   69.6852 N   0  0  0  0  0  0  0  0  0  0  0  0
   -9.7271   17.3221   69.2607 C   0  0  0  0  0  0  0  0  0  0  0  0
   -9.3095   17.3212   67.9557 N   0  0  0  0  0  0  0  0  0  0  0  0
   -9.5450   16.2958   67.0814 C   0  0  0  0  0  0  0  0  0  0  0  0
  -10.8644   16.0907   71.0374 C   0  0  0  0  0  0  0  0  0  0  0  0
   -8.5330   18.4792   67.4604 C   0  0  0  0  0  0  0  0  0  0  0  0
   -9.5433   18.2987   69.9938 O   0  0  0  0  0  0  0  0  0  0  0  0
   -9.1481   16.2876   65.9124 O   0  0  0  0  0  0  0  0  0  0  0  0
  -10.7304   14.0247   66.8209 C   0  0  0  0  0  0  0  0  0  0  0  0
  -11.1003   13.0895   66.2465 N   0  0  0  0  0  0  0  0  0  0  0  0
   -7.0275   18.2876   67.7219 C   0  0  0  0  0  0  0  0  0  0  0  0
  -10.0126   16.3511   72.1395 C   0  0  0  0  0  0  0  0  0  0  0  0
  -10.4883   16.2212   73.4591 C   0  0  0  0  0  0  0  0  0  0  0  0
  -11.8103   15.8022   73.6966 C   0  0  0  0  0  0  0  0  0  0  0  0
  -12.6594   15.5153   72.6113 C   0  0  0  0  0  0  0  0  0  0  0  0
  -12.1896   15.6561   71.2886 C   0  0  0  0  0  0  0  0  0  0  0  0
  -12.2768   15.6000   75.1088 C   0  0  0  0  0  0  0  0  0  0  0  0
   -6.5341   17.3729   68.3685 C   0  0  0  0  0  0  0  0  0  0  0  0
   -5.1308   17.1882   68.5568 C   0  0  0  0  0  0  0  0  0  0  0  0
   -6.2352   18.5841   66.5228 C   0  0  0  0  0  0  0  0  0  0  0  0
   -4.8738   18.3561   66.5020 C   0  0  0  0  0  0  0  0  0  0  0  0
   -4.3443   17.5536   67.4637 C   0  0  0  0  0  0  0  0  0  0  0  0
  -12.5816   16.5944   75.6960 O   0  0  0  0  0  0  0  0  0  0  0  0
  -11.8941   14.5564   75.6562 O   0  0  0  0  0  0  0  0  0  0  0  0
   -2.8633   17.2124   67.3863 C   0  0  0  0  0  0  0  0  0  0  0  0
   -2.7403   16.0031   67.4848 F   0  0  0  0  0  0  0  0  0  0  0  0
  1  2  2  0
  1  6  1  0
  1 11  1  0
  2  3  1  0
  3  4  1  0
  3  7  1  0
  4  9  2  0
  4  5  1  0
  5  6  1  0
  5  8  1  0
  6 10  2  0
  8 13  1  0
 11 12  3  0
 16 19  1  0
 19 25  2  0
 19 26  1  0
 24 27  1  0
 27 28  1  0
 13 20  2  0
 20 21  1  0
 21 24  2  0
 24 23  1  0
 23 22  2  0
 22 13  1  0
  7 18  2  0
 18 17  1  0
 17 16  2  0
 16 15  1  0
 15 14  2  0
 14  7  1  0
M  END

$$$$
No_304-gen_results_new/Mpro_initial_molecule_p3/2024-06-19-20-31-25/
     RDKit          3D

 25 26  0  0  0  0  0  0  0  0999 V2000
  -10.3383   15.1532   67.5971 C   0  0  0  0  0  0  0  0  0  0  0  0
  -10.7220   15.1619   68.8301 N   0  0  0  0  0  0  0  0  0  0  0  0
  -10.4044   16.2024   69.6852 N   0  0  0  0  0  0  0  0  0  0  0  0
   -9.7271   17.3221   69.2607 C   0  0  0  0  0  0  0  0  0  0  0  0
   -9.3095   17.3212   67.9557 N   0  0  0  0  0  0  0  0  0  0  0  0
   -9.5450   16.2958   67.0814 C   0  0  0  0  0  0  0  0  0  0  0  0
  -10.8644   16.0907   71.0374 C   0  0  0  0  0  0  0  0  0  0  0  0
   -8.5330   18.4792   67.4604 C   0  0  0  0  0  0  0  0  0  0  0  0
   -9.5433   18.2987   69.9938 O   0  0  0  0  0  0  0  0  0  0  0  0
   -9.1481   16.2876   65.9124 O   0  0  0  0  0  0  0  0  0  0  0  0
  -10.7304   14.0247   66.8209 C   0  0  0  0  0  0  0  0  0  0  0  0
  -11.1003   13.0895   66.2465 N   0  0  0  0  0  0  0  0  0  0  0  0
   -7.0275   18.2876   67.7219 C   0  0  0  0  0  0  0  0  0  0  0  0
  -10.0126   16.3511   72.1395 C   0  0  0  0  0  0  0  0  0  0  0  0
  -10.4883   16.2212   73.4591 C   0  0  0  0  0  0  0  0  0  0  0  0
  -11.8103   15.8022   73.6966 C   0  0  0  0  0  0  0  0  0  0  0  0
  -12.6594   15.5153   72.6113 C   0  0  0  0  0  0  0  0  0  0  0  0
  -12.1896   15.6561   71.2886 C   0  0  0  0  0  0  0  0  0  0  0  0
  -12.3486   15.5799   75.3255 Cl  0  0  0  0  0  0  0  0  0  0  0  0
   -6.4523   19.3079   67.8835 C   0  0  0  0  0  0  0  0  0  0  0  0
   -6.2543   20.3848   67.0158 C   0  0  0  0  0  0  0  0  0  0  0  0
   -6.0860   20.3210   65.6891 S   0  0  0  0  0  0  0  0  0  0  0  0
   -4.6653   19.3368   65.5366 C   0  0  0  0  0  0  0  0  0  0  0  0
   -6.4794   20.6178   64.6353 O   0  0  0  0  0  0  0  0  0  0  0  0
   -4.9962   20.5393   65.4018 O   0  0  0  0  0  0  0  0  0  0  0  0
  1  2  2  0
  1  6  1  0
  1 11  1  0
  2  3  1  0
  3  4  1  0
  3  7  1  0
  4  9  2  0
  4  5  1  0
  5  6  1  0
  5  8  1  0
  6 10  2  0
  8 13  1  0
 11 12  3  0
 16 19  1  0
 13 20  1  0
 20 21  1  0
 21 22  1  0
 22 23  1  0
 22 24  2  0
 22 25  2  0
  7 18  2  0
 18 17  1  0
 17 16  2  0
 16 15  1  0
 15 14  2  0
 14  7  1  0
M  END

$$$$
No_305-gen_results_new/Mpro_initial_molecule_p3/2024-06-19-20-31-25/
     RDKit          3D

 28 30  0  0  0  0  0  0  0  0999 V2000
  -10.3383   15.1532   67.5971 C   0  0  0  0  0  0  0  0  0  0  0  0
  -10.7220   15.1619   68.8301 N   0  0  0  0  0  0  0  0  0  0  0  0
  -10.4044   16.2024   69.6852 N   0  0  0  0  0  0  0  0  0  0  0  0
   -9.7271   17.3221   69.2607 C   0  0  0  0  0  0  0  0  0  0  0  0
   -9.3095   17.3212   67.9557 N   0  0  0  0  0  0  0  0  0  0  0  0
   -9.5450   16.2958   67.0814 C   0  0  0  0  0  0  0  0  0  0  0  0
  -10.8644   16.0907   71.0374 C   0  0  0  0  0  0  0  0  0  0  0  0
   -8.5330   18.4792   67.4604 C   0  0  0  0  0  0  0  0  0  0  0  0
   -9.5433   18.2987   69.9938 O   0  0  0  0  0  0  0  0  0  0  0  0
   -9.1481   16.2876   65.9124 O   0  0  0  0  0  0  0  0  0  0  0  0
  -10.7304   14.0247   66.8209 C   0  0  0  0  0  0  0  0  0  0  0  0
  -11.1003   13.0895   66.2465 N   0  0  0  0  0  0  0  0  0  0  0  0
   -7.0275   18.2876   67.7219 C   0  0  0  0  0  0  0  0  0  0  0  0
  -10.0126   16.3511   72.1395 C   0  0  0  0  0  0  0  0  0  0  0  0
  -10.4883   16.2212   73.4591 C   0  0  0  0  0  0  0  0  0  0  0  0
  -11.8103   15.8022   73.6966 C   0  0  0  0  0  0  0  0  0  0  0  0
  -12.6594   15.5153   72.6113 C   0  0  0  0  0  0  0  0  0  0  0  0
  -12.1896   15.6561   71.2886 C   0  0  0  0  0  0  0  0  0  0  0  0
  -12.2768   15.6000   75.1088 C   0  0  0  0  0  0  0  0  0  0  0  0
   -6.3059   19.3590   66.9154 C   0  0  0  0  0  0  0  0  0  0  0  0
   -4.9893   19.4432   66.9685 C   0  0  0  0  0  0  0  0  0  0  0  0
   -4.2710   18.3392   67.6545 C   0  0  0  0  0  0  0  0  0  0  0  0
   -5.0431   17.2552   68.3050 C   0  0  0  0  0  0  0  0  0  0  0  0
   -6.4246   17.2337   68.1850 C   0  0  0  0  0  0  0  0  0  0  0  0
  -12.3524   14.5924   75.5996 O   0  0  0  0  0  0  0  0  0  0  0  0
  -12.4214   16.7484   75.8005 N   0  0  0  0  0  0  0  0  0  0  0  0
   -4.2613   20.3553   66.4190 N   0  0  0  0  0  0  0  0  0  0  0  0
   -4.6278   21.5543   66.2409 C   0  0  0  0  0  0  0  0  0  0  0  0
  1  2  2  0
  1  6  1  0
  1 11  1  0
  2  3  1  0
  3  4  1  0
  3  7  1  0
  4  9  2  0
  4  5  1  0
  5  6  1  0
  5  8  1  0
  6 10  2  0
  8 13  1  0
 11 12  3  0
 16 19  1  0
 19 25  2  0
 19 26  1  0
 21 27  1  0
 27 28  1  0
 13 20  2  0
 20 21  1  0
 21 22  2  0
 22 23  1  0
 23 24  2  0
 24 13  1  0
  7 18  2  0
 18 17  1  0
 17 16  2  0
 16 15  1  0
 15 14  2  0
 14  7  1  0
M  END

$$$$
No_306-gen_results_new/Mpro_initial_molecule_p3/2024-06-19-20-31-25/
     RDKit          3D

 28 30  0  0  0  0  0  0  0  0999 V2000
  -10.3383   15.1532   67.5971 C   0  0  0  0  0  0  0  0  0  0  0  0
  -10.7220   15.1619   68.8301 N   0  0  0  0  0  0  0  0  0  0  0  0
  -10.4044   16.2024   69.6852 N   0  0  0  0  0  0  0  0  0  0  0  0
   -9.7271   17.3221   69.2607 C   0  0  0  0  0  0  0  0  0  0  0  0
   -9.3095   17.3212   67.9557 N   0  0  0  0  0  0  0  0  0  0  0  0
   -9.5450   16.2958   67.0814 C   0  0  0  0  0  0  0  0  0  0  0  0
  -10.8644   16.0907   71.0374 C   0  0  0  0  0  0  0  0  0  0  0  0
   -8.5330   18.4792   67.4604 C   0  0  0  0  0  0  0  0  0  0  0  0
   -9.5433   18.2987   69.9938 O   0  0  0  0  0  0  0  0  0  0  0  0
   -9.1481   16.2876   65.9124 O   0  0  0  0  0  0  0  0  0  0  0  0
  -10.7304   14.0247   66.8209 C   0  0  0  0  0  0  0  0  0  0  0  0
  -11.1003   13.0895   66.2465 N   0  0  0  0  0  0  0  0  0  0  0  0
   -7.0275   18.2876   67.7219 C   0  0  0  0  0  0  0  0  0  0  0  0
  -10.0126   16.3511   72.1395 C   0  0  0  0  0  0  0  0  0  0  0  0
  -10.4883   16.2212   73.4591 C   0  0  0  0  0  0  0  0  0  0  0  0
  -11.8103   15.8022   73.6966 C   0  0  0  0  0  0  0  0  0  0  0  0
  -12.6594   15.5153   72.6113 C   0  0  0  0  0  0  0  0  0  0  0  0
  -12.1896   15.6561   71.2886 C   0  0  0  0  0  0  0  0  0  0  0  0
  -12.3486   15.5799   75.3255 Cl  0  0  0  0  0  0  0  0  0  0  0  0
   -6.4523   19.3079   67.8835 C   0  0  0  0  0  0  0  0  0  0  0  0
   -6.2032   19.5449   69.0280 C   0  0  0  0  0  0  0  0  0  0  0  0
   -5.6841   18.3857   69.7844 C   0  0  0  0  0  0  0  0  0  0  0  0
   -6.2430   17.0342   69.3917 C   0  0  0  0  0  0  0  0  0  0  0  0
   -7.0139   17.0490   68.3797 C   0  0  0  0  0  0  0  0  0  0  0  0
   -6.4728   20.4084   66.9347 N   0  0  0  0  0  0  0  0  0  0  0  0
   -5.7825   20.3914   65.8364 C   0  0  0  0  0  0  0  0  0  0  0  0
   -5.6435   19.6293   65.0894 O   0  0  0  0  0  0  0  0  0  0  0  0
   -5.4816   21.6883   65.3639 O   0  0  0  0  0  0  0  0  0  0  0  0
  1  2  2  0
  1  6  1  0
  1 11  1  0
  2  3  1  0
  3  4  1  0
  3  7  1  0
  4  9  2  0
  4  5  1  0
  5  6  1  0
  5  8  1  0
  6 10  2  0
  8 13  1  0
 11 12  3  0
 16 19  1  0
 20 25  1  0
 25 26  1  0
 26 27  2  0
 26 28  1  0
 13 20  2  0
 20 21  1  0
 21 22  2  0
 22 23  1  0
 23 24  2  0
 24 13  1  0
  7 18  2  0
 18 17  1  0
 17 16  2  0
 16 15  1  0
 15 14  2  0
 14  7  1  0
M  END

$$$$
No_307-gen_results_new/Mpro_initial_molecule_p3/2024-06-19-20-31-25/
     RDKit          3D

 28 30  0  0  0  0  0  0  0  0999 V2000
  -10.3383   15.1532   67.5971 C   0  0  0  0  0  0  0  0  0  0  0  0
  -10.7220   15.1619   68.8301 N   0  0  0  0  0  0  0  0  0  0  0  0
  -10.4044   16.2024   69.6852 N   0  0  0  0  0  0  0  0  0  0  0  0
   -9.7271   17.3221   69.2607 C   0  0  0  0  0  0  0  0  0  0  0  0
   -9.3095   17.3212   67.9557 N   0  0  0  0  0  0  0  0  0  0  0  0
   -9.5450   16.2958   67.0814 C   0  0  0  0  0  0  0  0  0  0  0  0
  -10.8644   16.0907   71.0374 C   0  0  0  0  0  0  0  0  0  0  0  0
   -8.5330   18.4792   67.4604 C   0  0  0  0  0  0  0  0  0  0  0  0
   -9.5433   18.2987   69.9938 O   0  0  0  0  0  0  0  0  0  0  0  0
   -9.1481   16.2876   65.9124 O   0  0  0  0  0  0  0  0  0  0  0  0
  -10.7304   14.0247   66.8209 C   0  0  0  0  0  0  0  0  0  0  0  0
  -11.1003   13.0895   66.2465 N   0  0  0  0  0  0  0  0  0  0  0  0
   -7.0275   18.2876   67.7219 C   0  0  0  0  0  0  0  0  0  0  0  0
  -10.0126   16.3511   72.1395 C   0  0  0  0  0  0  0  0  0  0  0  0
  -10.4883   16.2212   73.4591 C   0  0  0  0  0  0  0  0  0  0  0  0
  -11.8103   15.8022   73.6966 C   0  0  0  0  0  0  0  0  0  0  0  0
  -12.6594   15.5153   72.6113 C   0  0  0  0  0  0  0  0  0  0  0  0
  -12.1896   15.6561   71.2886 C   0  0  0  0  0  0  0  0  0  0  0  0
  -12.3486   15.5799   75.3255 Cl  0  0  0  0  0  0  0  0  0  0  0  0
   -6.4523   19.3079   67.8835 C   0  0  0  0  0  0  0  0  0  0  0  0
   -4.9674   19.3665   67.8795 C   0  0  0  0  0  0  0  0  0  0  0  0
   -4.2474   20.6429   68.0405 C   0  0  0  0  0  0  0  0  0  0  0  0
   -3.2801   20.4329   69.1959 C   0  0  0  0  0  0  0  0  0  0  0  0
   -2.6373   19.1407   69.2643 C   0  0  0  0  0  0  0  0  0  0  0  0
   -3.3849   17.9302   69.2934 C   0  0  0  0  0  0  0  0  0  0  0  0
   -4.6024   17.8958   68.9571 C   0  0  0  0  0  0  0  0  0  0  0  0
   -3.6185   20.6943   66.8063 N   0  0  0  0  0  0  0  0  0  0  0  0
   -4.0471   19.9836   65.6928 C   0  0  0  0  0  0  0  0  0  0  0  0
  1  2  2  0
  1  6  1  0
  1 11  1  0
  2  3  1  0
  3  4  1  0
  3  7  1  0
  4  9  2  0
  4  5  1  0
  5  6  1  0
  5  8  1  0
  6 10  2  0
  8 13  1  0
 11 12  3  0
 16 19  1  0
 13 20  1  0
 20 21  1  0
 22 27  1  0
 27 28  1  0
  7 18  2  0
 18 17  1  0
 17 16  2  0
 16 15  1  0
 15 14  2  0
 14  7  1  0
 21 22  2  0
 22 23  1  0
 23 24  2  0
 24 25  1  0
 25 26  2  0
 26 21  1  0
M  END

$$$$
No_308-gen_results_new/Mpro_initial_molecule_p3/2024-06-19-20-31-25/
     RDKit          3D

 26 28  0  0  0  0  0  0  0  0999 V2000
  -10.3383   15.1532   67.5971 C   0  0  0  0  0  0  0  0  0  0  0  0
  -10.7220   15.1619   68.8301 N   0  0  0  0  0  0  0  0  0  0  0  0
  -10.4044   16.2024   69.6852 N   0  0  0  0  0  0  0  0  0  0  0  0
   -9.7271   17.3221   69.2607 C   0  0  0  0  0  0  0  0  0  0  0  0
   -9.3095   17.3212   67.9557 N   0  0  0  0  0  0  0  0  0  0  0  0
   -9.5450   16.2958   67.0814 C   0  0  0  0  0  0  0  0  0  0  0  0
  -10.8644   16.0907   71.0374 C   0  0  0  0  0  0  0  0  0  0  0  0
   -8.5330   18.4792   67.4604 C   0  0  0  0  0  0  0  0  0  0  0  0
   -9.5433   18.2987   69.9938 O   0  0  0  0  0  0  0  0  0  0  0  0
   -9.1481   16.2876   65.9124 O   0  0  0  0  0  0  0  0  0  0  0  0
  -10.7304   14.0247   66.8209 C   0  0  0  0  0  0  0  0  0  0  0  0
  -11.1003   13.0895   66.2465 N   0  0  0  0  0  0  0  0  0  0  0  0
   -7.0275   18.2876   67.7219 C   0  0  0  0  0  0  0  0  0  0  0  0
  -10.0126   16.3511   72.1395 C   0  0  0  0  0  0  0  0  0  0  0  0
  -10.4883   16.2212   73.4591 C   0  0  0  0  0  0  0  0  0  0  0  0
  -11.8103   15.8022   73.6966 C   0  0  0  0  0  0  0  0  0  0  0  0
  -12.6594   15.5153   72.6113 C   0  0  0  0  0  0  0  0  0  0  0  0
  -12.1896   15.6561   71.2886 C   0  0  0  0  0  0  0  0  0  0  0  0
  -12.3486   15.5799   75.3255 Cl  0  0  0  0  0  0  0  0  0  0  0  0
   -6.5344   17.3734   68.3696 C   0  0  0  0  0  0  0  0  0  0  0  0
   -5.1249   17.1828   68.5820 C   0  0  0  0  0  0  0  0  0  0  0  0
   -4.5638   16.2600   69.3585 C   0  0  0  0  0  0  0  0  0  0  0  0
   -5.3625   15.4101   70.1883 C   0  0  0  0  0  0  0  0  0  0  0  0
   -6.8138   15.6428   70.2147 C   0  0  0  0  0  0  0  0  0  0  0  0
   -7.7442   14.7254   71.2824 Cl  0  0  0  0  0  0  0  0  0  0  0  0
   -7.3626   16.5184   69.3297 C   0  0  0  0  0  0  0  0  0  0  0  0
  1  2  2  0
  1  6  1  0
  1 11  1  0
  2  3  1  0
  3  4  1  0
  3  7  1  0
  4  9  2  0
  4  5  1  0
  5  6  1  0
  5  8  1  0
  6 10  2  0
  8 13  1  0
 11 12  3  0
 16 19  1  0
 24 25  1  0
 13 20  1  0
  7 18  2  0
 18 17  1  0
 17 16  2  0
 16 15  1  0
 15 14  2  0
 14  7  1  0
 20 21  2  0
 21 22  1  0
 22 23  2  0
 23 24  1  0
 24 26  2  0
 26 20  1  0
M  END

$$$$
No_309-gen_results_new/Mpro_initial_molecule_p3/2024-06-19-20-31-25/
     RDKit          3D

 28 30  0  0  0  0  0  0  0  0999 V2000
  -10.3383   15.1532   67.5971 C   0  0  0  0  0  0  0  0  0  0  0  0
  -10.7220   15.1619   68.8301 N   0  0  0  0  0  0  0  0  0  0  0  0
  -10.4044   16.2024   69.6852 N   0  0  0  0  0  0  0  0  0  0  0  0
   -9.7271   17.3221   69.2607 C   0  0  0  0  0  0  0  0  0  0  0  0
   -9.3095   17.3212   67.9557 N   0  0  0  0  0  0  0  0  0  0  0  0
   -9.5450   16.2958   67.0814 C   0  0  0  0  0  0  0  0  0  0  0  0
  -10.8644   16.0907   71.0374 C   0  0  0  0  0  0  0  0  0  0  0  0
   -8.5330   18.4792   67.4604 C   0  0  0  0  0  0  0  0  0  0  0  0
   -9.5433   18.2987   69.9938 O   0  0  0  0  0  0  0  0  0  0  0  0
   -9.1481   16.2876   65.9124 O   0  0  0  0  0  0  0  0  0  0  0  0
  -10.7304   14.0247   66.8209 C   0  0  0  0  0  0  0  0  0  0  0  0
  -11.1003   13.0895   66.2465 N   0  0  0  0  0  0  0  0  0  0  0  0
   -7.0275   18.2876   67.7219 C   0  0  0  0  0  0  0  0  0  0  0  0
  -10.0126   16.3511   72.1395 C   0  0  0  0  0  0  0  0  0  0  0  0
  -10.4883   16.2212   73.4591 C   0  0  0  0  0  0  0  0  0  0  0  0
  -11.8103   15.8022   73.6966 C   0  0  0  0  0  0  0  0  0  0  0  0
  -12.6594   15.5153   72.6113 C   0  0  0  0  0  0  0  0  0  0  0  0
  -12.1896   15.6561   71.2886 C   0  0  0  0  0  0  0  0  0  0  0  0
  -12.2768   15.6000   75.1088 C   0  0  0  0  0  0  0  0  0  0  0  0
   -6.4522   19.3092   67.8826 C   0  0  0  0  0  0  0  0  0  0  0  0
  -12.3537   14.5923   75.5994 O   0  0  0  0  0  0  0  0  0  0  0  0
  -12.4205   16.7483   75.8013 N   0  0  0  0  0  0  0  0  0  0  0  0
   -6.3700   20.4051   67.0253 C   0  0  0  0  0  0  0  0  0  0  0  0
   -7.7686   20.6437   66.4634 C   0  0  0  0  0  0  0  0  0  0  0  0
   -8.7737   19.6945   66.6038 C   0  0  0  0  0  0  0  0  0  0  0  0
   -5.4902   21.3577   66.8363 O   0  0  0  0  0  0  0  0  0  0  0  0
   -4.1754   21.0309   67.0529 C   0  0  0  0  0  0  0  0  0  0  0  0
  -14.3078   14.8894   72.8638 Cl  0  0  0  0  0  0  0  0  0  0  0  0
  1  2  2  0
  1  6  1  0
  1 11  1  0
  2  3  1  0
  3  4  1  0
  3  7  1  0
  4  9  2  0
  4  5  1  0
  5  6  1  0
  5  8  1  0
  6 10  2  0
 11 12  3  0
 16 19  1  0
 19 21  2  0
 19 22  1  0
 23 26  1  0
 26 27  1  0
 17 28  1  0
  8 13  2  0
 13 20  1  0
 20 23  2  0
 23 24  1  0
 24 25  2  0
 25  8  1  0
  7 18  2  0
 18 17  1  0
 17 16  2  0
 16 15  1  0
 15 14  2  0
 14  7  1  0
M  END

$$$$
No_310-gen_results_new/Mpro_initial_molecule_p3/2024-06-19-20-31-25/
     RDKit          3D

 28 30  0  0  0  0  0  0  0  0999 V2000
  -10.3383   15.1532   67.5971 C   0  0  0  0  0  0  0  0  0  0  0  0
  -10.7220   15.1619   68.8301 N   0  0  0  0  0  0  0  0  0  0  0  0
  -10.4044   16.2024   69.6852 N   0  0  0  0  0  0  0  0  0  0  0  0
   -9.7271   17.3221   69.2607 C   0  0  0  0  0  0  0  0  0  0  0  0
   -9.3095   17.3212   67.9557 N   0  0  0  0  0  0  0  0  0  0  0  0
   -9.5450   16.2958   67.0814 C   0  0  0  0  0  0  0  0  0  0  0  0
  -10.8644   16.0907   71.0374 C   0  0  0  0  0  0  0  0  0  0  0  0
   -8.5330   18.4792   67.4604 C   0  0  0  0  0  0  0  0  0  0  0  0
   -9.5433   18.2987   69.9938 O   0  0  0  0  0  0  0  0  0  0  0  0
   -9.1481   16.2876   65.9124 O   0  0  0  0  0  0  0  0  0  0  0  0
  -10.7304   14.0247   66.8209 C   0  0  0  0  0  0  0  0  0  0  0  0
  -11.1003   13.0895   66.2465 N   0  0  0  0  0  0  0  0  0  0  0  0
   -7.0275   18.2876   67.7219 C   0  0  0  0  0  0  0  0  0  0  0  0
  -10.0126   16.3511   72.1395 C   0  0  0  0  0  0  0  0  0  0  0  0
  -10.4883   16.2212   73.4591 C   0  0  0  0  0  0  0  0  0  0  0  0
  -11.8103   15.8022   73.6966 C   0  0  0  0  0  0  0  0  0  0  0  0
  -12.6594   15.5153   72.6113 C   0  0  0  0  0  0  0  0  0  0  0  0
  -12.1896   15.6561   71.2886 C   0  0  0  0  0  0  0  0  0  0  0  0
  -12.2768   15.6000   75.1088 C   0  0  0  0  0  0  0  0  0  0  0  0
   -6.3059   19.3590   66.9154 C   0  0  0  0  0  0  0  0  0  0  0  0
   -5.0305   19.3684   67.0002 N   0  0  0  0  0  0  0  0  0  0  0  0
  -12.3532   14.5919   75.5994 O   0  0  0  0  0  0  0  0  0  0  0  0
  -12.8123   16.6648   75.6562 O   0  0  0  0  0  0  0  0  0  0  0  0
   -6.7808   20.0197   65.8021 C   0  0  0  0  0  0  0  0  0  0  0  0
   -4.2348   20.1990   66.3390 C   0  0  0  0  0  0  0  0  0  0  0  0
   -4.6782   21.0099   65.3872 C   0  0  0  0  0  0  0  0  0  0  0  0
   -6.0085   20.8512   65.0115 C   0  0  0  0  0  0  0  0  0  0  0  0
   -3.7525   21.9239   64.6507 C   0  0  0  0  0  0  0  0  0  0  0  0
  1  2  2  0
  1  6  1  0
  1 11  1  0
  2  3  1  0
  3  4  1  0
  3  7  1  0
  4  9  2  0
  4  5  1  0
  5  6  1  0
  5  8  1  0
  6 10  2  0
  8 13  1  0
 11 12  3  0
 16 19  1  0
 13 20  1  0
 19 22  2  0
 19 23  1  0
 26 28  1  0
 20 21  2  0
 21 25  1  0
 25 26  2  0
 26 27  1  0
 27 24  2  0
 24 20  1  0
  7 18  2  0
 18 17  1  0
 17 16  2  0
 16 15  1  0
 15 14  2  0
 14  7  1  0
M  END

$$$$
No_311-gen_results_new/Mpro_initial_molecule_p3/2024-06-19-20-31-25/
     RDKit          3D

 28 30  0  0  0  0  0  0  0  0999 V2000
  -10.3383   15.1532   67.5971 C   0  0  0  0  0  0  0  0  0  0  0  0
  -10.7220   15.1619   68.8301 N   0  0  0  0  0  0  0  0  0  0  0  0
  -10.4044   16.2024   69.6852 N   0  0  0  0  0  0  0  0  0  0  0  0
   -9.7271   17.3221   69.2607 C   0  0  0  0  0  0  0  0  0  0  0  0
   -9.3095   17.3212   67.9557 N   0  0  0  0  0  0  0  0  0  0  0  0
   -9.5450   16.2958   67.0814 C   0  0  0  0  0  0  0  0  0  0  0  0
  -10.8644   16.0907   71.0374 C   0  0  0  0  0  0  0  0  0  0  0  0
   -8.5330   18.4792   67.4604 C   0  0  0  0  0  0  0  0  0  0  0  0
   -9.5433   18.2987   69.9938 O   0  0  0  0  0  0  0  0  0  0  0  0
   -9.1481   16.2876   65.9124 O   0  0  0  0  0  0  0  0  0  0  0  0
  -10.7304   14.0247   66.8209 C   0  0  0  0  0  0  0  0  0  0  0  0
  -11.1003   13.0895   66.2465 N   0  0  0  0  0  0  0  0  0  0  0  0
   -7.0275   18.2876   67.7219 C   0  0  0  0  0  0  0  0  0  0  0  0
  -10.0126   16.3511   72.1395 C   0  0  0  0  0  0  0  0  0  0  0  0
  -10.4883   16.2212   73.4591 C   0  0  0  0  0  0  0  0  0  0  0  0
  -11.8103   15.8022   73.6966 C   0  0  0  0  0  0  0  0  0  0  0  0
  -12.6594   15.5153   72.6113 C   0  0  0  0  0  0  0  0  0  0  0  0
  -12.1896   15.6561   71.2886 C   0  0  0  0  0  0  0  0  0  0  0  0
  -12.2484   15.6088   75.0145 O   0  0  0  0  0  0  0  0  0  0  0  0
   -6.4522   19.3083   67.8828 C   0  0  0  0  0  0  0  0  0  0  0  0
   -6.2560   20.3852   67.0148 C   0  0  0  0  0  0  0  0  0  0  0  0
   -6.3494   20.0753   65.8006 C   0  0  0  0  0  0  0  0  0  0  0  0
   -5.5685   20.6292   64.6883 C   0  0  0  0  0  0  0  0  0  0  0  0
   -5.0076   21.8474   64.9198 C   0  0  0  0  0  0  0  0  0  0  0  0
   -4.7987   22.2158   66.2727 C   0  0  0  0  0  0  0  0  0  0  0  0
   -5.2904   21.4395   67.3043 C   0  0  0  0  0  0  0  0  0  0  0  0
  -12.3381   16.7904   75.7234 C   0  0  0  0  0  0  0  0  0  0  0  0
   -4.2808   22.5630   63.7899 C   0  0  0  0  0  0  0  0  0  0  0  0
  1  2  2  0
  1  6  1  0
  1 11  1  0
  2  3  1  0
  3  4  1  0
  3  7  1  0
  4  9  2  0
  4  5  1  0
  5  6  1  0
  5  8  1  0
  6 10  2  0
  8 13  1  0
 11 12  3  0
 16 19  1  0
 13 20  1  0
 20 21  1  0
 19 27  1  0
 24 28  1  0
  7 18  2  0
 18 17  1  0
 17 16  2  0
 16 15  1  0
 15 14  2  0
 14  7  1  0
 21 22  2  0
 22 23  1  0
 23 24  2  0
 24 25  1  0
 25 26  2  0
 26 21  1  0
M  END

$$$$
No_312-gen_results_new/Mpro_initial_molecule_p3/2024-06-19-20-31-25/
     RDKit          3D

 28 30  0  0  0  0  0  0  0  0999 V2000
  -10.3383   15.1532   67.5971 C   0  0  0  0  0  0  0  0  0  0  0  0
  -10.7220   15.1619   68.8301 N   0  0  0  0  0  0  0  0  0  0  0  0
  -10.4044   16.2024   69.6852 N   0  0  0  0  0  0  0  0  0  0  0  0
   -9.7271   17.3221   69.2607 C   0  0  0  0  0  0  0  0  0  0  0  0
   -9.3095   17.3212   67.9557 N   0  0  0  0  0  0  0  0  0  0  0  0
   -9.5450   16.2958   67.0814 C   0  0  0  0  0  0  0  0  0  0  0  0
  -10.8644   16.0907   71.0374 C   0  0  0  0  0  0  0  0  0  0  0  0
   -8.5330   18.4792   67.4604 C   0  0  0  0  0  0  0  0  0  0  0  0
   -9.5433   18.2987   69.9938 O   0  0  0  0  0  0  0  0  0  0  0  0
   -9.1481   16.2876   65.9124 O   0  0  0  0  0  0  0  0  0  0  0  0
  -10.7304   14.0247   66.8209 C   0  0  0  0  0  0  0  0  0  0  0  0
  -11.1003   13.0895   66.2465 N   0  0  0  0  0  0  0  0  0  0  0  0
   -7.0275   18.2876   67.7219 C   0  0  0  0  0  0  0  0  0  0  0  0
  -10.0126   16.3511   72.1395 C   0  0  0  0  0  0  0  0  0  0  0  0
  -10.4883   16.2212   73.4591 C   0  0  0  0  0  0  0  0  0  0  0  0
  -11.8103   15.8022   73.6966 C   0  0  0  0  0  0  0  0  0  0  0  0
  -12.6594   15.5153   72.6113 C   0  0  0  0  0  0  0  0  0  0  0  0
  -12.1896   15.6561   71.2886 C   0  0  0  0  0  0  0  0  0  0  0  0
  -12.3486   15.5799   75.3255 Cl  0  0  0  0  0  0  0  0  0  0  0  0
   -6.3058   19.3592   66.9157 C   0  0  0  0  0  0  0  0  0  0  0  0
   -4.9894   19.4433   66.9687 C   0  0  0  0  0  0  0  0  0  0  0  0
   -4.2885   20.4306   66.2890 C   0  0  0  0  0  0  0  0  0  0  0  0
   -4.9684   21.5146   65.8589 C   0  0  0  0  0  0  0  0  0  0  0  0
   -6.3744   21.4843   65.8347 C   0  0  0  0  0  0  0  0  0  0  0  0
   -7.0549   20.4513   66.4029 C   0  0  0  0  0  0  0  0  0  0  0  0
   -4.1772   22.5486   65.2268 N   0  0  0  0  0  0  0  0  0  0  0  0
  -14.1199   14.9551   72.8043 C   0  0  0  0  0  0  0  0  0  0  0  0
   -3.7199   22.5232   64.0013 C   0  0  0  0  0  0  0  0  0  0  0  0
  1  2  2  0
  1  6  1  0
  1 11  1  0
  2  3  1  0
  3  4  1  0
  3  7  1  0
  4  9  2  0
  4  5  1  0
  5  6  1  0
  5  8  1  0
  6 10  2  0
  8 13  1  0
 11 12  3  0
 16 19  1  0
 13 20  1  0
 23 26  1  0
 17 27  1  0
 26 28  1  0
 20 21  2  0
 21 22  1  0
 22 23  2  0
 23 24  1  0
 24 25  2  0
 25 20  1  0
  7 18  2  0
 18 17  1  0
 17 16  2  0
 16 15  1  0
 15 14  2  0
 14  7  1  0
M  END

$$$$
No_313-gen_results_new/Mpro_initial_molecule_p3/2024-06-19-20-31-25/
     RDKit          3D

 28 30  0  0  0  0  0  0  0  0999 V2000
  -10.3383   15.1532   67.5971 C   0  0  0  0  0  0  0  0  0  0  0  0
  -10.7220   15.1619   68.8301 N   0  0  0  0  0  0  0  0  0  0  0  0
  -10.4044   16.2024   69.6852 N   0  0  0  0  0  0  0  0  0  0  0  0
   -9.7271   17.3221   69.2607 C   0  0  0  0  0  0  0  0  0  0  0  0
   -9.3095   17.3212   67.9557 N   0  0  0  0  0  0  0  0  0  0  0  0
   -9.5450   16.2958   67.0814 C   0  0  0  0  0  0  0  0  0  0  0  0
  -10.8644   16.0907   71.0374 C   0  0  0  0  0  0  0  0  0  0  0  0
   -8.5330   18.4792   67.4604 C   0  0  0  0  0  0  0  0  0  0  0  0
   -9.5433   18.2987   69.9938 O   0  0  0  0  0  0  0  0  0  0  0  0
   -9.1481   16.2876   65.9124 O   0  0  0  0  0  0  0  0  0  0  0  0
  -10.7304   14.0247   66.8209 C   0  0  0  0  0  0  0  0  0  0  0  0
  -11.1003   13.0895   66.2465 N   0  0  0  0  0  0  0  0  0  0  0  0
   -7.0275   18.2876   67.7219 C   0  0  0  0  0  0  0  0  0  0  0  0
  -10.0126   16.3511   72.1395 C   0  0  0  0  0  0  0  0  0  0  0  0
  -10.4883   16.2212   73.4591 C   0  0  0  0  0  0  0  0  0  0  0  0
  -11.8103   15.8022   73.6966 C   0  0  0  0  0  0  0  0  0  0  0  0
  -12.6594   15.5153   72.6113 C   0  0  0  0  0  0  0  0  0  0  0  0
  -12.1896   15.6561   71.2886 C   0  0  0  0  0  0  0  0  0  0  0  0
  -12.2768   15.6000   75.1088 C   0  0  0  0  0  0  0  0  0  0  0  0
   -6.4522   19.3092   67.8826 C   0  0  0  0  0  0  0  0  0  0  0  0
  -12.3537   14.5923   75.5994 O   0  0  0  0  0  0  0  0  0  0  0  0
  -12.2286   16.6680   75.8386 O   0  0  0  0  0  0  0  0  0  0  0  0
   -6.4090   20.4100   67.0303 C   0  0  0  0  0  0  0  0  0  0  0  0
   -7.7901   20.6284   66.4444 C   0  0  0  0  0  0  0  0  0  0  0  0
   -8.8559   19.6559   66.7224 C   0  0  0  0  0  0  0  0  0  0  0  0
   -5.5720   21.3825   66.7962 O   0  0  0  0  0  0  0  0  0  0  0  0
  -14.3129   14.8804   72.8675 Cl  0  0  0  0  0  0  0  0  0  0  0  0
   -4.2455   21.0268   66.9619 C   0  0  0  0  0  0  0  0  0  0  0  0
  1  2  2  0
  1  6  1  0
  1 11  1  0
  2  3  1  0
  3  4  1  0
  3  7  1  0
  4  9  2  0
  4  5  1  0
  5  6  1  0
  5  8  1  0
  6 10  2  0
 11 12  3  0
 16 19  1  0
 19 21  2  0
 19 22  1  0
 23 26  1  0
 17 27  1  0
 26 28  1  0
  8 13  2  0
 13 20  1  0
 20 23  2  0
 23 24  1  0
 24 25  2  0
 25  8  1  0
  7 18  2  0
 18 17  1  0
 17 16  2  0
 16 15  1  0
 15 14  2  0
 14  7  1  0
M  END

$$$$
No_314-gen_results_new/Mpro_initial_molecule_p3/2024-06-19-20-31-25/
     RDKit          3D

 28 30  0  0  0  0  0  0  0  0999 V2000
  -10.3383   15.1532   67.5971 C   0  0  0  0  0  0  0  0  0  0  0  0
  -10.7220   15.1619   68.8301 N   0  0  0  0  0  0  0  0  0  0  0  0
  -10.4044   16.2024   69.6852 N   0  0  0  0  0  0  0  0  0  0  0  0
   -9.7271   17.3221   69.2607 C   0  0  0  0  0  0  0  0  0  0  0  0
   -9.3095   17.3212   67.9557 N   0  0  0  0  0  0  0  0  0  0  0  0
   -9.5450   16.2958   67.0814 C   0  0  0  0  0  0  0  0  0  0  0  0
  -10.8644   16.0907   71.0374 C   0  0  0  0  0  0  0  0  0  0  0  0
   -8.5330   18.4792   67.4604 C   0  0  0  0  0  0  0  0  0  0  0  0
   -9.5433   18.2987   69.9938 O   0  0  0  0  0  0  0  0  0  0  0  0
   -9.1481   16.2876   65.9124 O   0  0  0  0  0  0  0  0  0  0  0  0
  -10.7304   14.0247   66.8209 C   0  0  0  0  0  0  0  0  0  0  0  0
  -11.1003   13.0895   66.2465 N   0  0  0  0  0  0  0  0  0  0  0  0
   -7.0275   18.2876   67.7219 C   0  0  0  0  0  0  0  0  0  0  0  0
  -10.0126   16.3511   72.1395 C   0  0  0  0  0  0  0  0  0  0  0  0
  -10.4883   16.2212   73.4591 C   0  0  0  0  0  0  0  0  0  0  0  0
  -11.8103   15.8022   73.6966 C   0  0  0  0  0  0  0  0  0  0  0  0
  -12.6594   15.5153   72.6113 C   0  0  0  0  0  0  0  0  0  0  0  0
  -12.1896   15.6561   71.2886 C   0  0  0  0  0  0  0  0  0  0  0  0
  -12.2484   15.6088   75.0145 O   0  0  0  0  0  0  0  0  0  0  0  0
   -6.3059   19.3591   66.9155 C   0  0  0  0  0  0  0  0  0  0  0  0
   -4.9923   19.4463   66.9703 C   0  0  0  0  0  0  0  0  0  0  0  0
   -4.2957   18.3095   67.6838 C   0  0  0  0  0  0  0  0  0  0  0  0
   -3.0413   18.2106   67.5978 F   0  0  0  0  0  0  0  0  0  0  0  0
   -5.0643   17.1720   68.2356 C   0  0  0  0  0  0  0  0  0  0  0  0
   -6.4740   17.2016   68.1586 C   0  0  0  0  0  0  0  0  0  0  0  0
  -11.8453   14.7440   75.7171 C   0  0  0  0  0  0  0  0  0  0  0  0
   -4.2613   20.3934   66.5055 O   0  0  0  0  0  0  0  0  0  0  0  0
   -3.2596   20.5134   66.0140 C   0  0  0  0  0  0  0  0  0  0  0  0
  1  2  2  0
  1  6  1  0
  1 11  1  0
  2  3  1  0
  3  4  1  0
  3  7  1  0
  4  9  2  0
  4  5  1  0
  5  6  1  0
  5  8  1  0
  6 10  2  0
  8 13  1  0
 11 12  3  0
 16 19  1  0
 22 23  1  0
 19 26  1  0
 21 27  1  0
 27 28  1  0
 13 20  2  0
 20 21  1  0
 21 22  2  0
 22 24  1  0
 24 25  2  0
 25 13  1  0
  7 18  2  0
 18 17  1  0
 17 16  2  0
 16 15  1  0
 15 14  2  0
 14  7  1  0
M  END

$$$$
No_315-gen_results_new/Mpro_initial_molecule_p3/2024-06-19-20-31-25/
     RDKit          3D

 28 30  0  0  0  0  0  0  0  0999 V2000
  -10.3383   15.1532   67.5971 C   0  0  0  0  0  0  0  0  0  0  0  0
  -10.7220   15.1619   68.8301 N   0  0  0  0  0  0  0  0  0  0  0  0
  -10.4044   16.2024   69.6852 N   0  0  0  0  0  0  0  0  0  0  0  0
   -9.7271   17.3221   69.2607 C   0  0  0  0  0  0  0  0  0  0  0  0
   -9.3095   17.3212   67.9557 N   0  0  0  0  0  0  0  0  0  0  0  0
   -9.5450   16.2958   67.0814 C   0  0  0  0  0  0  0  0  0  0  0  0
  -10.8644   16.0907   71.0374 C   0  0  0  0  0  0  0  0  0  0  0  0
   -8.5330   18.4792   67.4604 C   0  0  0  0  0  0  0  0  0  0  0  0
   -9.5433   18.2987   69.9938 O   0  0  0  0  0  0  0  0  0  0  0  0
   -9.1481   16.2876   65.9124 O   0  0  0  0  0  0  0  0  0  0  0  0
  -10.7304   14.0247   66.8209 C   0  0  0  0  0  0  0  0  0  0  0  0
  -11.1003   13.0895   66.2465 N   0  0  0  0  0  0  0  0  0  0  0  0
   -7.0275   18.2876   67.7219 C   0  0  0  0  0  0  0  0  0  0  0  0
  -10.0126   16.3511   72.1395 C   0  0  0  0  0  0  0  0  0  0  0  0
  -10.4883   16.2212   73.4591 C   0  0  0  0  0  0  0  0  0  0  0  0
  -11.8103   15.8022   73.6966 C   0  0  0  0  0  0  0  0  0  0  0  0
  -12.6594   15.5153   72.6113 C   0  0  0  0  0  0  0  0  0  0  0  0
  -12.1896   15.6561   71.2886 C   0  0  0  0  0  0  0  0  0  0  0  0
  -12.2768   15.6000   75.1088 C   0  0  0  0  0  0  0  0  0  0  0  0
   -6.3059   19.3590   66.9154 C   0  0  0  0  0  0  0  0  0  0  0  0
   -4.9893   19.4432   66.9685 C   0  0  0  0  0  0  0  0  0  0  0  0
   -4.2710   18.3392   67.6545 C   0  0  0  0  0  0  0  0  0  0  0  0
   -5.0431   17.2552   68.3050 C   0  0  0  0  0  0  0  0  0  0  0  0
   -6.4246   17.2337   68.1850 C   0  0  0  0  0  0  0  0  0  0  0  0
  -11.9778   16.5262   75.8855 N   0  0  0  0  0  0  0  0  0  0  0  0
   -4.2026   20.4283   66.3808 C   0  0  0  0  0  0  0  0  0  0  0  0
   -4.1904   20.6778   65.2110 N   0  0  0  0  0  0  0  0  0  0  0  0
   -4.9654   20.1636   64.2656 C   0  0  0  0  0  0  0  0  0  0  0  0
  1  2  2  0
  1  6  1  0
  1 11  1  0
  2  3  1  0
  3  4  1  0
  3  7  1  0
  4  9  2  0
  4  5  1  0
  5  6  1  0
  5  8  1  0
  6 10  2  0
  8 13  1  0
 11 12  3  0
 16 19  1  0
 19 25  1  0
 21 26  1  0
 26 27  1  0
 27 28  1  0
 13 20  2  0
 20 21  1  0
 21 22  2  0
 22 23  1  0
 23 24  2  0
 24 13  1  0
  7 18  2  0
 18 17  1  0
 17 16  2  0
 16 15  1  0
 15 14  2  0
 14  7  1  0
M  END

$$$$
No_316-gen_results_new/Mpro_initial_molecule_p3/2024-06-19-20-31-25/
     RDKit          3D

 24 26  0  0  0  0  0  0  0  0999 V2000
  -10.3383   15.1532   67.5971 C   0  0  0  0  0  0  0  0  0  0  0  0
  -10.7220   15.1619   68.8301 N   0  0  0  0  0  0  0  0  0  0  0  0
  -10.4044   16.2024   69.6852 N   0  0  0  0  0  0  0  0  0  0  0  0
   -9.7271   17.3221   69.2607 C   0  0  0  0  0  0  0  0  0  0  0  0
   -9.3095   17.3212   67.9557 N   0  0  0  0  0  0  0  0  0  0  0  0
   -9.5450   16.2958   67.0814 C   0  0  0  0  0  0  0  0  0  0  0  0
  -10.8644   16.0907   71.0374 C   0  0  0  0  0  0  0  0  0  0  0  0
   -8.5330   18.4792   67.4604 C   0  0  0  0  0  0  0  0  0  0  0  0
   -9.5433   18.2987   69.9938 O   0  0  0  0  0  0  0  0  0  0  0  0
   -9.1481   16.2876   65.9124 O   0  0  0  0  0  0  0  0  0  0  0  0
  -10.7304   14.0247   66.8209 C   0  0  0  0  0  0  0  0  0  0  0  0
  -11.1003   13.0895   66.2465 N   0  0  0  0  0  0  0  0  0  0  0  0
   -7.0275   18.2876   67.7219 C   0  0  0  0  0  0  0  0  0  0  0  0
  -10.0126   16.3511   72.1395 C   0  0  0  0  0  0  0  0  0  0  0  0
  -10.4883   16.2212   73.4591 C   0  0  0  0  0  0  0  0  0  0  0  0
  -11.8103   15.8022   73.6966 C   0  0  0  0  0  0  0  0  0  0  0  0
  -12.6594   15.5153   72.6113 C   0  0  0  0  0  0  0  0  0  0  0  0
  -12.1896   15.6561   71.2886 C   0  0  0  0  0  0  0  0  0  0  0  0
  -12.3486   15.5799   75.3255 Cl  0  0  0  0  0  0  0  0  0  0  0  0
   -6.3058   19.3592   66.9157 C   0  0  0  0  0  0  0  0  0  0  0  0
   -6.9578   20.4799   66.4326 C   0  0  0  0  0  0  0  0  0  0  0  0
   -5.9281   21.6613   65.7502 Cl  0  0  0  0  0  0  0  0  0  0  0  0
   -8.2198   20.4332   66.1752 N   0  0  0  0  0  0  0  0  0  0  0  0
   -9.0591   19.4312   66.6596 C   0  0  0  0  0  0  0  0  0  0  0  0
  1  2  2  0
  1  6  1  0
  1 11  1  0
  2  3  1  0
  3  4  1  0
  3  7  1  0
  4  9  2  0
  4  5  1  0
  5  6  1  0
  5  8  1  0
  6 10  2  0
 11 12  3  0
 16 19  1  0
 21 22  1  0
  8 13  2  0
 13 20  1  0
 20 21  2  0
 21 23  1  0
 23 24  2  0
 24  8  1  0
  7 18  2  0
 18 17  1  0
 17 16  2  0
 16 15  1  0
 15 14  2  0
 14  7  1  0
M  END

$$$$
No_317-gen_results_new/Mpro_initial_molecule_p3/2024-06-19-20-31-25/
     RDKit          3D

 28 30  0  0  0  0  0  0  0  0999 V2000
  -10.3383   15.1532   67.5971 C   0  0  0  0  0  0  0  0  0  0  0  0
  -10.7220   15.1619   68.8301 N   0  0  0  0  0  0  0  0  0  0  0  0
  -10.4044   16.2024   69.6852 N   0  0  0  0  0  0  0  0  0  0  0  0
   -9.7271   17.3221   69.2607 C   0  0  0  0  0  0  0  0  0  0  0  0
   -9.3095   17.3212   67.9557 N   0  0  0  0  0  0  0  0  0  0  0  0
   -9.5450   16.2958   67.0814 C   0  0  0  0  0  0  0  0  0  0  0  0
  -10.8644   16.0907   71.0374 C   0  0  0  0  0  0  0  0  0  0  0  0
   -8.5330   18.4792   67.4604 C   0  0  0  0  0  0  0  0  0  0  0  0
   -9.5433   18.2987   69.9938 O   0  0  0  0  0  0  0  0  0  0  0  0
   -9.1481   16.2876   65.9124 O   0  0  0  0  0  0  0  0  0  0  0  0
  -10.7304   14.0247   66.8209 C   0  0  0  0  0  0  0  0  0  0  0  0
  -11.1003   13.0895   66.2465 N   0  0  0  0  0  0  0  0  0  0  0  0
   -7.0275   18.2876   67.7219 C   0  0  0  0  0  0  0  0  0  0  0  0
  -10.0126   16.3511   72.1395 C   0  0  0  0  0  0  0  0  0  0  0  0
  -10.4883   16.2212   73.4591 C   0  0  0  0  0  0  0  0  0  0  0  0
  -11.8103   15.8022   73.6966 C   0  0  0  0  0  0  0  0  0  0  0  0
  -12.6594   15.5153   72.6113 C   0  0  0  0  0  0  0  0  0  0  0  0
  -12.1896   15.6561   71.2886 C   0  0  0  0  0  0  0  0  0  0  0  0
  -12.2497   15.6113   74.9888 F   0  0  0  0  0  0  0  0  0  0  0  0
   -6.3059   19.3592   66.9155 C   0  0  0  0  0  0  0  0  0  0  0  0
   -7.0039   20.0427   66.0922 C   0  0  0  0  0  0  0  0  0  0  0  0
   -6.1903   20.9683   65.2898 C   0  0  0  0  0  0  0  0  0  0  0  0
   -4.8882   21.3109   65.8077 C   0  0  0  0  0  0  0  0  0  0  0  0
   -4.4529   20.5695   66.8431 C   0  0  0  0  0  0  0  0  0  0  0  0
   -5.1141   19.6176   67.5350 C   0  0  0  0  0  0  0  0  0  0  0  0
   -4.1626   22.2805   65.1654 O   0  0  0  0  0  0  0  0  0  0  0  0
  -14.0960   14.9502   72.8514 C   0  0  0  0  0  0  0  0  0  0  0  0
   -3.4505   22.1700   64.1642 C   0  0  0  0  0  0  0  0  0  0  0  0
  1  2  2  0
  1  6  1  0
  1 11  1  0
  2  3  1  0
  3  4  1  0
  3  7  1  0
  4  9  2  0
  4  5  1  0
  5  6  1  0
  5  8  1  0
  6 10  2  0
  8 13  1  0
 11 12  3  0
 16 19  1  0
 13 20  1  0
 23 26  1  0
 17 27  1  0
 26 28  1  0
 20 21  2  0
 21 22  1  0
 22 23  2  0
 23 24  1  0
 24 25  2  0
 25 20  1  0
  7 18  2  0
 18 17  1  0
 17 16  2  0
 16 15  1  0
 15 14  2  0
 14  7  1  0
M  END

$$$$
No_318-gen_results_new/Mpro_initial_molecule_p3/2024-06-19-20-31-25/
     RDKit          3D

 28 30  0  0  0  0  0  0  0  0999 V2000
  -10.3383   15.1532   67.5971 C   0  0  0  0  0  0  0  0  0  0  0  0
  -10.7220   15.1619   68.8301 N   0  0  0  0  0  0  0  0  0  0  0  0
  -10.4044   16.2024   69.6852 N   0  0  0  0  0  0  0  0  0  0  0  0
   -9.7271   17.3221   69.2607 C   0  0  0  0  0  0  0  0  0  0  0  0
   -9.3095   17.3212   67.9557 N   0  0  0  0  0  0  0  0  0  0  0  0
   -9.5450   16.2958   67.0814 C   0  0  0  0  0  0  0  0  0  0  0  0
  -10.8644   16.0907   71.0374 C   0  0  0  0  0  0  0  0  0  0  0  0
   -8.5330   18.4792   67.4604 C   0  0  0  0  0  0  0  0  0  0  0  0
   -9.5433   18.2987   69.9938 O   0  0  0  0  0  0  0  0  0  0  0  0
   -9.1481   16.2876   65.9124 O   0  0  0  0  0  0  0  0  0  0  0  0
  -10.7304   14.0247   66.8209 C   0  0  0  0  0  0  0  0  0  0  0  0
  -11.1003   13.0895   66.2465 N   0  0  0  0  0  0  0  0  0  0  0  0
   -7.0275   18.2876   67.7219 C   0  0  0  0  0  0  0  0  0  0  0  0
  -10.0126   16.3511   72.1395 C   0  0  0  0  0  0  0  0  0  0  0  0
  -10.4883   16.2212   73.4591 C   0  0  0  0  0  0  0  0  0  0  0  0
  -11.8103   15.8022   73.6966 C   0  0  0  0  0  0  0  0  0  0  0  0
  -12.6594   15.5153   72.6113 C   0  0  0  0  0  0  0  0  0  0  0  0
  -12.1896   15.6561   71.2886 C   0  0  0  0  0  0  0  0  0  0  0  0
  -12.3486   15.5799   75.3255 Cl  0  0  0  0  0  0  0  0  0  0  0  0
   -6.4523   19.3079   67.8835 C   0  0  0  0  0  0  0  0  0  0  0  0
   -6.2543   20.3848   67.0158 C   0  0  0  0  0  0  0  0  0  0  0  0
   -6.3455   20.0750   65.8013 C   0  0  0  0  0  0  0  0  0  0  0  0
   -6.5731   19.0614   65.1686 C   0  0  0  0  0  0  0  0  0  0  0  0
   -6.6218   17.8510   66.1927 C   0  0  0  0  0  0  0  0  0  0  0  0
   -5.3494   20.7943   64.9325 O   0  0  0  0  0  0  0  0  0  0  0  0
   -5.5543   20.8456   63.5449 C   0  0  0  0  0  0  0  0  0  0  0  0
  -14.1204   14.9566   72.8037 C   0  0  0  0  0  0  0  0  0  0  0  0
   -4.6978   22.0006   63.0653 C   0  0  0  0  0  0  0  0  0  0  0  0
  1  2  2  0
  1  6  1  0
  1 11  1  0
  2  3  1  0
  3  4  1  0
  3  7  1  0
  4  9  2  0
  4  5  1  0
  5  6  1  0
  5  8  1  0
  6 10  2  0
  8 13  1  0
 11 12  3  0
 16 19  1  0
 22 25  1  0
 25 26  1  0
 17 27  1  0
 26 28  1  0
 13 20  2  0
 20 21  1  0
 21 22  2  0
 22 23  1  0
 23 24  2  0
 24 13  1  0
  7 18  2  0
 18 17  1  0
 17 16  2  0
 16 15  1  0
 15 14  2  0
 14  7  1  0
M  END

$$$$
No_319-gen_results_new/Mpro_initial_molecule_p3/2024-06-19-20-31-25/
     RDKit          3D

 28 30  0  0  0  0  0  0  0  0999 V2000
  -10.3383   15.1532   67.5971 C   0  0  0  0  0  0  0  0  0  0  0  0
  -10.7220   15.1619   68.8301 N   0  0  0  0  0  0  0  0  0  0  0  0
  -10.4044   16.2024   69.6852 N   0  0  0  0  0  0  0  0  0  0  0  0
   -9.7271   17.3221   69.2607 C   0  0  0  0  0  0  0  0  0  0  0  0
   -9.3095   17.3212   67.9557 N   0  0  0  0  0  0  0  0  0  0  0  0
   -9.5450   16.2958   67.0814 C   0  0  0  0  0  0  0  0  0  0  0  0
  -10.8644   16.0907   71.0374 C   0  0  0  0  0  0  0  0  0  0  0  0
   -8.5330   18.4792   67.4604 C   0  0  0  0  0  0  0  0  0  0  0  0
   -9.5433   18.2987   69.9938 O   0  0  0  0  0  0  0  0  0  0  0  0
   -9.1481   16.2876   65.9124 O   0  0  0  0  0  0  0  0  0  0  0  0
  -10.7304   14.0247   66.8209 C   0  0  0  0  0  0  0  0  0  0  0  0
  -11.1003   13.0895   66.2465 N   0  0  0  0  0  0  0  0  0  0  0  0
   -7.0275   18.2876   67.7219 C   0  0  0  0  0  0  0  0  0  0  0  0
  -10.0126   16.3511   72.1395 C   0  0  0  0  0  0  0  0  0  0  0  0
  -10.4883   16.2212   73.4591 C   0  0  0  0  0  0  0  0  0  0  0  0
  -11.8103   15.8022   73.6966 C   0  0  0  0  0  0  0  0  0  0  0  0
  -12.6594   15.5153   72.6113 C   0  0  0  0  0  0  0  0  0  0  0  0
  -12.1896   15.6561   71.2886 C   0  0  0  0  0  0  0  0  0  0  0  0
  -12.3282   15.6698   75.1036 C   0  0  0  0  0  0  0  0  0  0  0  0
   -6.3058   19.3590   66.9155 C   0  0  0  0  0  0  0  0  0  0  0  0
   -7.0070   20.0395   66.0817 C   0  0  0  0  0  0  0  0  0  0  0  0
   -8.3353   20.2281   65.8978 C   0  0  0  0  0  0  0  0  0  0  0  0
   -9.1791   19.1615   66.4365 C   0  0  0  0  0  0  0  0  0  0  0  0
  -11.9297   16.3998   75.8986 O   0  0  0  0  0  0  0  0  0  0  0  0
  -13.3368   15.0805   75.2846 O   0  0  0  0  0  0  0  0  0  0  0  0
   -6.1850   21.0325   65.4336 F   0  0  0  0  0  0  0  0  0  0  0  0
   -4.9764   19.3789   67.1876 N   0  0  0  0  0  0  0  0  0  0  0  0
   -4.1354   18.5850   66.6187 C   0  0  0  0  0  0  0  0  0  0  0  0
  1  2  2  0
  1  6  1  0
  1 11  1  0
  2  3  1  0
  3  4  1  0
  3  7  1  0
  4  9  2  0
  4  5  1  0
  5  6  1  0
  5  8  1  0
  6 10  2  0
 11 12  3  0
 16 19  1  0
 19 24  2  0
 19 25  1  0
 21 26  1  0
 20 27  1  0
 27 28  1  0
  8 13  2  0
 13 20  1  0
 20 21  2  0
 21 22  1  0
 22 23  2  0
 23  8  1  0
  7 18  2  0
 18 17  1  0
 17 16  2  0
 16 15  1  0
 15 14  2  0
 14  7  1  0
M  END

$$$$
No_320-gen_results_new/Mpro_initial_molecule_p3/2024-06-19-20-31-25/
     RDKit          3D

 28 30  0  0  0  0  0  0  0  0999 V2000
  -10.3383   15.1532   67.5971 C   0  0  0  0  0  0  0  0  0  0  0  0
  -10.7220   15.1619   68.8301 N   0  0  0  0  0  0  0  0  0  0  0  0
  -10.4044   16.2024   69.6852 N   0  0  0  0  0  0  0  0  0  0  0  0
   -9.7271   17.3221   69.2607 C   0  0  0  0  0  0  0  0  0  0  0  0
   -9.3095   17.3212   67.9557 N   0  0  0  0  0  0  0  0  0  0  0  0
   -9.5450   16.2958   67.0814 C   0  0  0  0  0  0  0  0  0  0  0  0
  -10.8644   16.0907   71.0374 C   0  0  0  0  0  0  0  0  0  0  0  0
   -8.5330   18.4792   67.4604 C   0  0  0  0  0  0  0  0  0  0  0  0
   -9.5433   18.2987   69.9938 O   0  0  0  0  0  0  0  0  0  0  0  0
   -9.1481   16.2876   65.9124 O   0  0  0  0  0  0  0  0  0  0  0  0
  -10.7304   14.0247   66.8209 C   0  0  0  0  0  0  0  0  0  0  0  0
  -11.1003   13.0895   66.2465 N   0  0  0  0  0  0  0  0  0  0  0  0
   -7.0275   18.2876   67.7219 C   0  0  0  0  0  0  0  0  0  0  0  0
  -10.0126   16.3511   72.1395 C   0  0  0  0  0  0  0  0  0  0  0  0
  -10.4883   16.2212   73.4591 C   0  0  0  0  0  0  0  0  0  0  0  0
  -11.8103   15.8022   73.6966 C   0  0  0  0  0  0  0  0  0  0  0  0
  -12.6594   15.5153   72.6113 C   0  0  0  0  0  0  0  0  0  0  0  0
  -12.1896   15.6561   71.2886 C   0  0  0  0  0  0  0  0  0  0  0  0
  -12.2484   15.6088   75.0145 O   0  0  0  0  0  0  0  0  0  0  0  0
   -6.5341   17.3731   68.3686 C   0  0  0  0  0  0  0  0  0  0  0  0
   -5.1247   17.1828   68.5818 C   0  0  0  0  0  0  0  0  0  0  0  0
   -4.4393   18.0516   67.8375 C   0  0  0  0  0  0  0  0  0  0  0  0
   -4.8689   19.0477   67.0691 C   0  0  0  0  0  0  0  0  0  0  0  0
   -6.2627   19.1642   66.9258 C   0  0  0  0  0  0  0  0  0  0  0  0
  -11.8770   16.5247   75.9059 C   0  0  0  0  0  0  0  0  0  0  0  0
  -14.0780   14.8963   72.8031 C   0  0  0  0  0  0  0  0  0  0  0  0
   -3.9999   19.9993   66.3269 C   0  0  0  0  0  0  0  0  0  0  0  0
   -4.2714   21.2745   66.4162 C   0  0  0  0  0  0  0  0  0  0  0  0
  1  2  2  0
  1  6  1  0
  1 11  1  0
  2  3  1  0
  3  4  1  0
  3  7  1  0
  4  9  2  0
  4  5  1  0
  5  6  1  0
  5  8  1  0
  6 10  2  0
  8 13  1  0
 11 12  3  0
 16 19  1  0
 19 25  1  0
 17 26  1  0
 23 27  1  0
 27 28  2  0
 13 20  2  0
 20 21  1  0
 21 22  2  0
 22 23  1  0
 23 24  2  0
 24 13  1  0
  7 18  2  0
 18 17  1  0
 17 16  2  0
 16 15  1  0
 15 14  2  0
 14  7  1  0
M  END

$$$$
No_321-gen_results_new/Mpro_initial_molecule_p3/2024-06-19-20-31-25/
     RDKit          3D

 28 30  0  0  0  0  0  0  0  0999 V2000
  -10.3383   15.1532   67.5971 C   0  0  0  0  0  0  0  0  0  0  0  0
  -10.7220   15.1619   68.8301 N   0  0  0  0  0  0  0  0  0  0  0  0
  -10.4044   16.2024   69.6852 N   0  0  0  0  0  0  0  0  0  0  0  0
   -9.7271   17.3221   69.2607 C   0  0  0  0  0  0  0  0  0  0  0  0
   -9.3095   17.3212   67.9557 N   0  0  0  0  0  0  0  0  0  0  0  0
   -9.5450   16.2958   67.0814 C   0  0  0  0  0  0  0  0  0  0  0  0
  -10.8644   16.0907   71.0374 C   0  0  0  0  0  0  0  0  0  0  0  0
   -8.5330   18.4792   67.4604 C   0  0  0  0  0  0  0  0  0  0  0  0
   -9.5433   18.2987   69.9938 O   0  0  0  0  0  0  0  0  0  0  0  0
   -9.1481   16.2876   65.9124 O   0  0  0  0  0  0  0  0  0  0  0  0
  -10.7304   14.0247   66.8209 C   0  0  0  0  0  0  0  0  0  0  0  0
  -11.1003   13.0895   66.2465 N   0  0  0  0  0  0  0  0  0  0  0  0
   -7.0275   18.2876   67.7219 C   0  0  0  0  0  0  0  0  0  0  0  0
  -10.0126   16.3511   72.1395 C   0  0  0  0  0  0  0  0  0  0  0  0
  -10.4883   16.2212   73.4591 C   0  0  0  0  0  0  0  0  0  0  0  0
  -11.8103   15.8022   73.6966 C   0  0  0  0  0  0  0  0  0  0  0  0
  -12.6594   15.5153   72.6113 C   0  0  0  0  0  0  0  0  0  0  0  0
  -12.1896   15.6561   71.2886 C   0  0  0  0  0  0  0  0  0  0  0  0
  -12.2768   15.6000   75.1088 C   0  0  0  0  0  0  0  0  0  0  0  0
   -6.4522   19.3092   67.8826 C   0  0  0  0  0  0  0  0  0  0  0  0
  -11.9157   16.6462   75.9414 C   0  0  0  0  0  0  0  0  0  0  0  0
   -4.9620   19.3658   67.9006 C   0  0  0  0  0  0  0  0  0  0  0  0
   -4.2438   20.6397   68.0517 C   0  0  0  0  0  0  0  0  0  0  0  0
   -2.7760   20.4474   67.8395 C   0  0  0  0  0  0  0  0  0  0  0  0
   -2.0223   21.3265   67.6774 N   0  0  0  0  0  0  0  0  0  0  0  0
   -2.2453   19.0750   67.5457 C   0  0  0  0  0  0  0  0  0  0  0  0
   -4.3605   18.1419   67.5923 C   0  0  0  0  0  0  0  0  0  0  0  0
   -2.9817   18.0669   67.4906 C   0  0  0  0  0  0  0  0  0  0  0  0
  1  2  2  0
  1  6  1  0
  1 11  1  0
  2  3  1  0
  3  4  1  0
  3  7  1  0
  4  9  2  0
  4  5  1  0
  5  6  1  0
  5  8  1  0
  6 10  2  0
  8 13  1  0
 11 12  3  0
 16 19  1  0
 13 20  1  0
 19 21  1  0
 20 22  1  0
 24 25  1  0
 22 23  2  0
 23 24  1  0
 24 26  2  0
 26 28  1  0
 28 27  2  0
 27 22  1  0
  7 18  2  0
 18 17  1  0
 17 16  2  0
 16 15  1  0
 15 14  2  0
 14  7  1  0
M  END

$$$$
No_322-gen_results_new/Mpro_initial_molecule_p3/2024-06-19-20-31-25/
     RDKit          3D

 28 30  0  0  0  0  0  0  0  0999 V2000
  -10.3383   15.1532   67.5971 C   0  0  0  0  0  0  0  0  0  0  0  0
  -10.7220   15.1619   68.8301 N   0  0  0  0  0  0  0  0  0  0  0  0
  -10.4044   16.2024   69.6852 N   0  0  0  0  0  0  0  0  0  0  0  0
   -9.7271   17.3221   69.2607 C   0  0  0  0  0  0  0  0  0  0  0  0
   -9.3095   17.3212   67.9557 N   0  0  0  0  0  0  0  0  0  0  0  0
   -9.5450   16.2958   67.0814 C   0  0  0  0  0  0  0  0  0  0  0  0
  -10.8644   16.0907   71.0374 C   0  0  0  0  0  0  0  0  0  0  0  0
   -8.5330   18.4792   67.4604 C   0  0  0  0  0  0  0  0  0  0  0  0
   -9.5433   18.2987   69.9938 O   0  0  0  0  0  0  0  0  0  0  0  0
   -9.1481   16.2876   65.9124 O   0  0  0  0  0  0  0  0  0  0  0  0
  -10.7304   14.0247   66.8209 C   0  0  0  0  0  0  0  0  0  0  0  0
  -11.1003   13.0895   66.2465 N   0  0  0  0  0  0  0  0  0  0  0  0
   -7.0275   18.2876   67.7219 C   0  0  0  0  0  0  0  0  0  0  0  0
  -10.0126   16.3511   72.1395 C   0  0  0  0  0  0  0  0  0  0  0  0
  -10.4883   16.2212   73.4591 C   0  0  0  0  0  0  0  0  0  0  0  0
  -11.8103   15.8022   73.6966 C   0  0  0  0  0  0  0  0  0  0  0  0
  -12.6594   15.5153   72.6113 C   0  0  0  0  0  0  0  0  0  0  0  0
  -12.1896   15.6561   71.2886 C   0  0  0  0  0  0  0  0  0  0  0  0
  -12.2484   15.6088   75.0145 O   0  0  0  0  0  0  0  0  0  0  0  0
   -6.4522   19.3083   67.8828 C   0  0  0  0  0  0  0  0  0  0  0  0
   -4.9672   19.3668   67.8788 C   0  0  0  0  0  0  0  0  0  0  0  0
   -4.2474   20.6434   68.0390 C   0  0  0  0  0  0  0  0  0  0  0  0
   -2.7800   20.4589   67.8089 C   0  0  0  0  0  0  0  0  0  0  0  0
   -2.2369   19.1736   67.4835 C   0  0  0  0  0  0  0  0  0  0  0  0
   -3.0112   17.9909   67.3027 C   0  0  0  0  0  0  0  0  0  0  0  0
   -4.4021   18.1071   67.4917 C   0  0  0  0  0  0  0  0  0  0  0  0
  -11.8809   16.5244   75.9084 C   0  0  0  0  0  0  0  0  0  0  0  0
  -13.9765   14.9538   72.7877 O   0  0  0  0  0  0  0  0  0  0  0  0
  1  2  2  0
  1  6  1  0
  1 11  1  0
  2  3  1  0
  3  4  1  0
  3  7  1  0
  4  9  2  0
  4  5  1  0
  5  6  1  0
  5  8  1  0
  6 10  2  0
  8 13  1  0
 11 12  3  0
 16 19  1  0
 13 20  1  0
 20 21  1  0
 19 27  1  0
 17 28  1  0
  7 18  2  0
 18 17  1  0
 17 16  2  0
 16 15  1  0
 15 14  2  0
 14  7  1  0
 21 22  2  0
 22 23  1  0
 23 24  2  0
 24 25  1  0
 25 26  2  0
 26 21  1  0
M  END

$$$$
No_323-gen_results_new/Mpro_initial_molecule_p3/2024-06-19-20-31-25/
     RDKit          3D

 28 30  0  0  0  0  0  0  0  0999 V2000
  -10.3383   15.1532   67.5971 C   0  0  0  0  0  0  0  0  0  0  0  0
  -10.7220   15.1619   68.8301 N   0  0  0  0  0  0  0  0  0  0  0  0
  -10.4044   16.2024   69.6852 N   0  0  0  0  0  0  0  0  0  0  0  0
   -9.7271   17.3221   69.2607 C   0  0  0  0  0  0  0  0  0  0  0  0
   -9.3095   17.3212   67.9557 N   0  0  0  0  0  0  0  0  0  0  0  0
   -9.5450   16.2958   67.0814 C   0  0  0  0  0  0  0  0  0  0  0  0
  -10.8644   16.0907   71.0374 C   0  0  0  0  0  0  0  0  0  0  0  0
   -8.5330   18.4792   67.4604 C   0  0  0  0  0  0  0  0  0  0  0  0
   -9.5433   18.2987   69.9938 O   0  0  0  0  0  0  0  0  0  0  0  0
   -9.1481   16.2876   65.9124 O   0  0  0  0  0  0  0  0  0  0  0  0
  -10.7304   14.0247   66.8209 C   0  0  0  0  0  0  0  0  0  0  0  0
  -11.1003   13.0895   66.2465 N   0  0  0  0  0  0  0  0  0  0  0  0
   -7.0275   18.2876   67.7219 C   0  0  0  0  0  0  0  0  0  0  0  0
  -10.0126   16.3511   72.1395 C   0  0  0  0  0  0  0  0  0  0  0  0
  -10.4883   16.2212   73.4591 C   0  0  0  0  0  0  0  0  0  0  0  0
  -11.8103   15.8022   73.6966 C   0  0  0  0  0  0  0  0  0  0  0  0
  -12.6594   15.5153   72.6113 C   0  0  0  0  0  0  0  0  0  0  0  0
  -12.1896   15.6561   71.2886 C   0  0  0  0  0  0  0  0  0  0  0  0
  -12.3486   15.5799   75.3255 Cl  0  0  0  0  0  0  0  0  0  0  0  0
   -6.5344   17.3734   68.3696 C   0  0  0  0  0  0  0  0  0  0  0  0
   -5.1249   17.1828   68.5820 C   0  0  0  0  0  0  0  0  0  0  0  0
   -4.2977   17.9476   67.7740 C   0  0  0  0  0  0  0  0  0  0  0  0
   -4.8005   18.8999   66.9631 C   0  0  0  0  0  0  0  0  0  0  0  0
   -6.2306   19.0369   66.8859 C   0  0  0  0  0  0  0  0  0  0  0  0
  -14.0277   15.0076   72.7863 O   0  0  0  0  0  0  0  0  0  0  0  0
   -2.9110   17.7786   67.8465 O   0  0  0  0  0  0  0  0  0  0  0  0
   -2.3843   16.7850   68.6063 C   0  0  0  0  0  0  0  0  0  0  0  0
   -1.9830   17.1464   69.8988 C   0  0  0  0  0  0  0  0  0  0  0  0
  1  2  2  0
  1  6  1  0
  1 11  1  0
  2  3  1  0
  3  4  1  0
  3  7  1  0
  4  9  2  0
  4  5  1  0
  5  6  1  0
  5  8  1  0
  6 10  2  0
  8 13  1  0
 11 12  3  0
 16 19  1  0
 17 25  1  0
 22 26  1  0
 26 27  1  0
 27 28  1  0
 13 20  2  0
 20 21  1  0
 21 22  2  0
 22 23  1  0
 23 24  2  0
 24 13  1  0
  7 18  2  0
 18 17  1  0
 17 16  2  0
 16 15  1  0
 15 14  2  0
 14  7  1  0
M  END

$$$$
No_324-gen_results_new/Mpro_initial_molecule_p3/2024-06-19-20-31-25/
     RDKit          3D

 28 30  0  0  0  0  0  0  0  0999 V2000
  -10.3383   15.1532   67.5971 C   0  0  0  0  0  0  0  0  0  0  0  0
  -10.7220   15.1619   68.8301 N   0  0  0  0  0  0  0  0  0  0  0  0
  -10.4044   16.2024   69.6852 N   0  0  0  0  0  0  0  0  0  0  0  0
   -9.7271   17.3221   69.2607 C   0  0  0  0  0  0  0  0  0  0  0  0
   -9.3095   17.3212   67.9557 N   0  0  0  0  0  0  0  0  0  0  0  0
   -9.5450   16.2958   67.0814 C   0  0  0  0  0  0  0  0  0  0  0  0
  -10.8644   16.0907   71.0374 C   0  0  0  0  0  0  0  0  0  0  0  0
   -8.5330   18.4792   67.4604 C   0  0  0  0  0  0  0  0  0  0  0  0
   -9.5433   18.2987   69.9938 O   0  0  0  0  0  0  0  0  0  0  0  0
   -9.1481   16.2876   65.9124 O   0  0  0  0  0  0  0  0  0  0  0  0
  -10.7304   14.0247   66.8209 C   0  0  0  0  0  0  0  0  0  0  0  0
  -11.1003   13.0895   66.2465 N   0  0  0  0  0  0  0  0  0  0  0  0
   -7.0275   18.2876   67.7219 C   0  0  0  0  0  0  0  0  0  0  0  0
  -10.0126   16.3511   72.1395 C   0  0  0  0  0  0  0  0  0  0  0  0
  -10.4883   16.2212   73.4591 C   0  0  0  0  0  0  0  0  0  0  0  0
  -11.8103   15.8022   73.6966 C   0  0  0  0  0  0  0  0  0  0  0  0
  -12.6594   15.5153   72.6113 C   0  0  0  0  0  0  0  0  0  0  0  0
  -12.1896   15.6561   71.2886 C   0  0  0  0  0  0  0  0  0  0  0  0
  -12.2768   15.6000   75.1088 C   0  0  0  0  0  0  0  0  0  0  0  0
   -6.5556   17.2014   67.9036 O   0  0  0  0  0  0  0  0  0  0  0  0
   -6.1754   19.2736   67.0930 C   0  0  0  0  0  0  0  0  0  0  0  0
   -6.4418   20.1570   66.1808 C   0  0  0  0  0  0  0  0  0  0  0  0
   -5.4778   21.0666   65.6958 C   0  0  0  0  0  0  0  0  0  0  0  0
   -4.4113   21.3602   66.4396 C   0  0  0  0  0  0  0  0  0  0  0  0
   -4.1802   20.5694   67.6052 C   0  0  0  0  0  0  0  0  0  0  0  0
   -5.0800   19.5607   68.0022 C   0  0  0  0  0  0  0  0  0  0  0  0
  -11.9598   16.3236   75.9325 O   0  0  0  0  0  0  0  0  0  0  0  0
  -12.4641   14.3691   75.4158 O   0  0  0  0  0  0  0  0  0  0  0  0
  1  2  2  0
  1  6  1  0
  1 11  1  0
  2  3  1  0
  3  4  1  0
  3  7  1  0
  4  9  2  0
  4  5  1  0
  5  6  1  0
  5  8  1  0
  6 10  2  0
  8 13  1  0
 11 12  3  0
 16 19  1  0
 13 20  2  0
 13 21  1  0
 19 27  2  0
 19 28  1  0
  7 18  2  0
 18 17  1  0
 17 16  2  0
 16 15  1  0
 15 14  2  0
 14  7  1  0
 21 22  2  0
 22 23  1  0
 23 24  2  0
 24 25  1  0
 25 26  2  0
 26 21  1  0
M  END

$$$$
No_325-gen_results_new/Mpro_initial_molecule_p3/2024-06-19-20-31-25/
     RDKit          3D

 26 28  0  0  0  0  0  0  0  0999 V2000
  -10.3383   15.1532   67.5971 C   0  0  0  0  0  0  0  0  0  0  0  0
  -10.7220   15.1619   68.8301 N   0  0  0  0  0  0  0  0  0  0  0  0
  -10.4044   16.2024   69.6852 N   0  0  0  0  0  0  0  0  0  0  0  0
   -9.7271   17.3221   69.2607 C   0  0  0  0  0  0  0  0  0  0  0  0
   -9.3095   17.3212   67.9557 N   0  0  0  0  0  0  0  0  0  0  0  0
   -9.5450   16.2958   67.0814 C   0  0  0  0  0  0  0  0  0  0  0  0
  -10.8644   16.0907   71.0374 C   0  0  0  0  0  0  0  0  0  0  0  0
   -8.5330   18.4792   67.4604 C   0  0  0  0  0  0  0  0  0  0  0  0
   -9.5433   18.2987   69.9938 O   0  0  0  0  0  0  0  0  0  0  0  0
   -9.1481   16.2876   65.9124 O   0  0  0  0  0  0  0  0  0  0  0  0
  -10.7304   14.0247   66.8209 C   0  0  0  0  0  0  0  0  0  0  0  0
  -11.1003   13.0895   66.2465 N   0  0  0  0  0  0  0  0  0  0  0  0
   -7.0275   18.2876   67.7219 C   0  0  0  0  0  0  0  0  0  0  0  0
  -10.0126   16.3511   72.1395 C   0  0  0  0  0  0  0  0  0  0  0  0
  -10.4883   16.2212   73.4591 C   0  0  0  0  0  0  0  0  0  0  0  0
  -11.8103   15.8022   73.6966 C   0  0  0  0  0  0  0  0  0  0  0  0
  -12.6594   15.5153   72.6113 C   0  0  0  0  0  0  0  0  0  0  0  0
  -12.1896   15.6561   71.2886 C   0  0  0  0  0  0  0  0  0  0  0  0
  -12.3486   15.5799   75.3255 Cl  0  0  0  0  0  0  0  0  0  0  0  0
   -6.5344   17.3734   68.3696 C   0  0  0  0  0  0  0  0  0  0  0  0
   -5.1310   17.1884   68.5570 C   0  0  0  0  0  0  0  0  0  0  0  0
   -6.2282   19.1878   66.9085 C   0  0  0  0  0  0  0  0  0  0  0  0
   -6.6903   20.2577   66.0908 C   0  0  0  0  0  0  0  0  0  0  0  0
   -4.2962   18.0595   67.8350 C   0  0  0  0  0  0  0  0  0  0  0  0
   -4.8139   19.0391   67.0576 C   0  0  0  0  0  0  0  0  0  0  0  0
   -5.8266   20.8130   65.1968 C   0  0  0  0  0  0  0  0  0  0  0  0
  1  2  2  0
  1  6  1  0
  1 11  1  0
  2  3  1  0
  3  4  1  0
  3  7  1  0
  4  9  2  0
  4  5  1  0
  5  6  1  0
  5  8  1  0
  6 10  2  0
  8 13  1  0
 11 12  3  0
 16 19  1  0
 22 23  1  0
 23 26  2  0
  7 18  2  0
 18 17  1  0
 17 16  2  0
 16 15  1  0
 15 14  2  0
 14  7  1  0
 13 20  2  0
 20 21  1  0
 21 24  2  0
 24 25  1  0
 25 22  2  0
 22 13  1  0
M  END

$$$$
No_326-gen_results_new/Mpro_initial_molecule_p3/2024-06-19-20-31-25/
     RDKit          3D

 28 30  0  0  0  0  0  0  0  0999 V2000
  -10.3383   15.1532   67.5971 C   0  0  0  0  0  0  0  0  0  0  0  0
  -10.7220   15.1619   68.8301 N   0  0  0  0  0  0  0  0  0  0  0  0
  -10.4044   16.2024   69.6852 N   0  0  0  0  0  0  0  0  0  0  0  0
   -9.7271   17.3221   69.2607 C   0  0  0  0  0  0  0  0  0  0  0  0
   -9.3095   17.3212   67.9557 N   0  0  0  0  0  0  0  0  0  0  0  0
   -9.5450   16.2958   67.0814 C   0  0  0  0  0  0  0  0  0  0  0  0
  -10.8644   16.0907   71.0374 C   0  0  0  0  0  0  0  0  0  0  0  0
   -8.5330   18.4792   67.4604 C   0  0  0  0  0  0  0  0  0  0  0  0
   -9.5433   18.2987   69.9938 O   0  0  0  0  0  0  0  0  0  0  0  0
   -9.1481   16.2876   65.9124 O   0  0  0  0  0  0  0  0  0  0  0  0
  -10.7304   14.0247   66.8209 C   0  0  0  0  0  0  0  0  0  0  0  0
  -11.1003   13.0895   66.2465 N   0  0  0  0  0  0  0  0  0  0  0  0
   -7.0275   18.2876   67.7219 C   0  0  0  0  0  0  0  0  0  0  0  0
  -10.0126   16.3511   72.1395 C   0  0  0  0  0  0  0  0  0  0  0  0
  -10.4883   16.2212   73.4591 C   0  0  0  0  0  0  0  0  0  0  0  0
  -11.8103   15.8022   73.6966 C   0  0  0  0  0  0  0  0  0  0  0  0
  -12.6594   15.5153   72.6113 C   0  0  0  0  0  0  0  0  0  0  0  0
  -12.1896   15.6561   71.2886 C   0  0  0  0  0  0  0  0  0  0  0  0
  -12.3486   15.5799   75.3255 Cl  0  0  0  0  0  0  0  0  0  0  0  0
   -6.5558   17.2018   67.9045 O   0  0  0  0  0  0  0  0  0  0  0  0
   -6.2800   19.2224   67.1755 N   0  0  0  0  0  0  0  0  0  0  0  0
   -5.1947   19.6532   66.9554 C   0  0  0  0  0  0  0  0  0  0  0  0
   -4.7397   19.7084   65.7810 C   0  0  0  0  0  0  0  0  0  0  0  0
   -4.0194   19.3715   65.1688 C   0  0  0  0  0  0  0  0  0  0  0  0
   -2.7073   19.1426   65.8291 N   0  0  0  0  0  0  0  0  0  0  0  0
   -2.7321   19.3733   67.3050 C   0  0  0  0  0  0  0  0  0  0  0  0
   -4.0725   19.4246   67.8578 C   0  0  0  0  0  0  0  0  0  0  0  0
   -4.1874   19.4870   69.3748 C   0  0  0  0  0  0  0  0  0  0  0  0
  1  2  2  0
  1  6  1  0
  1 11  1  0
  2  3  1  0
  3  4  1  0
  3  7  1  0
  4  9  2  0
  4  5  1  0
  5  6  1  0
  5  8  1  0
  6 10  2  0
  8 13  1  0
 11 12  3  0
 16 19  1  0
 13 20  2  0
 13 21  1  0
 21 22  1  0
 27 28  1  0
 22 23  2  0
 23 24  1  0
 24 25  2  0
 25 26  1  0
 26 27  2  0
 27 22  1  0
  7 18  2  0
 18 17  1  0
 17 16  2  0
 16 15  1  0
 15 14  2  0
 14  7  1  0
M  END

$$$$
No_327-gen_results_new/Mpro_initial_molecule_p3/2024-06-19-20-31-25/
     RDKit          3D

 28 30  0  0  0  0  0  0  0  0999 V2000
  -10.3383   15.1532   67.5971 C   0  0  0  0  0  0  0  0  0  0  0  0
  -10.7220   15.1619   68.8301 N   0  0  0  0  0  0  0  0  0  0  0  0
  -10.4044   16.2024   69.6852 N   0  0  0  0  0  0  0  0  0  0  0  0
   -9.7271   17.3221   69.2607 C   0  0  0  0  0  0  0  0  0  0  0  0
   -9.3095   17.3212   67.9557 N   0  0  0  0  0  0  0  0  0  0  0  0
   -9.5450   16.2958   67.0814 C   0  0  0  0  0  0  0  0  0  0  0  0
  -10.8644   16.0907   71.0374 C   0  0  0  0  0  0  0  0  0  0  0  0
   -8.5330   18.4792   67.4604 C   0  0  0  0  0  0  0  0  0  0  0  0
   -9.5433   18.2987   69.9938 O   0  0  0  0  0  0  0  0  0  0  0  0
   -9.1481   16.2876   65.9124 O   0  0  0  0  0  0  0  0  0  0  0  0
  -10.7304   14.0247   66.8209 C   0  0  0  0  0  0  0  0  0  0  0  0
  -11.1003   13.0895   66.2465 N   0  0  0  0  0  0  0  0  0  0  0  0
   -7.0275   18.2876   67.7219 C   0  0  0  0  0  0  0  0  0  0  0  0
  -10.0126   16.3511   72.1395 C   0  0  0  0  0  0  0  0  0  0  0  0
  -10.4883   16.2212   73.4591 C   0  0  0  0  0  0  0  0  0  0  0  0
  -11.8103   15.8022   73.6966 C   0  0  0  0  0  0  0  0  0  0  0  0
  -12.6594   15.5153   72.6113 C   0  0  0  0  0  0  0  0  0  0  0  0
  -12.1896   15.6561   71.2886 C   0  0  0  0  0  0  0  0  0  0  0  0
  -12.2768   15.6000   75.1088 C   0  0  0  0  0  0  0  0  0  0  0  0
   -6.5341   17.3729   68.3685 C   0  0  0  0  0  0  0  0  0  0  0  0
   -5.1308   17.1882   68.5568 C   0  0  0  0  0  0  0  0  0  0  0  0
   -6.2282   19.1886   66.9092 C   0  0  0  0  0  0  0  0  0  0  0  0
   -6.8043   20.4045   65.9650 S   0  0  0  0  0  0  0  0  0  0  0  0
   -4.2920   18.0536   67.8512 C   0  0  0  0  0  0  0  0  0  0  0  0
   -4.8199   19.0455   67.0547 C   0  0  0  0  0  0  0  0  0  0  0  0
   -6.1305   21.1111   65.3487 O   0  0  0  0  0  0  0  0  0  0  0  0
   -8.3146   20.1338   65.8886 O   0  0  0  0  0  0  0  0  0  0  0  0
   -6.3157   21.2152   66.4335 O   0  0  0  0  0  0  0  0  0  0  0  0
  1  2  2  0
  1  6  1  0
  1 11  1  0
  2  3  1  0
  3  4  1  0
  3  7  1  0
  4  9  2  0
  4  5  1  0
  5  6  1  0
  5  8  1  0
  6 10  2  0
  8 13  1  0
 11 12  3  0
 16 19  1  0
 22 23  1  0
 23 26  2  0
 23 27  2  0
 23 28  1  0
  7 18  2  0
 18 17  1  0
 17 16  2  0
 16 15  1  0
 15 14  2  0
 14  7  1  0
 13 20  2  0
 20 21  1  0
 21 24  2  0
 24 25  1  0
 25 22  2  0
 22 13  1  0
M  END

$$$$
No_328-gen_results_new/Mpro_initial_molecule_p3/2024-06-19-20-31-25/
     RDKit          3D

 28 30  0  0  0  0  0  0  0  0999 V2000
  -10.3383   15.1532   67.5971 C   0  0  0  0  0  0  0  0  0  0  0  0
  -10.7220   15.1619   68.8301 N   0  0  0  0  0  0  0  0  0  0  0  0
  -10.4044   16.2024   69.6852 N   0  0  0  0  0  0  0  0  0  0  0  0
   -9.7271   17.3221   69.2607 C   0  0  0  0  0  0  0  0  0  0  0  0
   -9.3095   17.3212   67.9557 N   0  0  0  0  0  0  0  0  0  0  0  0
   -9.5450   16.2958   67.0814 C   0  0  0  0  0  0  0  0  0  0  0  0
  -10.8644   16.0907   71.0374 C   0  0  0  0  0  0  0  0  0  0  0  0
   -8.5330   18.4792   67.4604 C   0  0  0  0  0  0  0  0  0  0  0  0
   -9.5433   18.2987   69.9938 O   0  0  0  0  0  0  0  0  0  0  0  0
   -9.1481   16.2876   65.9124 O   0  0  0  0  0  0  0  0  0  0  0  0
  -10.7304   14.0247   66.8209 C   0  0  0  0  0  0  0  0  0  0  0  0
  -11.1003   13.0895   66.2465 N   0  0  0  0  0  0  0  0  0  0  0  0
   -7.0275   18.2876   67.7219 C   0  0  0  0  0  0  0  0  0  0  0  0
  -10.0126   16.3511   72.1395 C   0  0  0  0  0  0  0  0  0  0  0  0
  -10.4883   16.2212   73.4591 C   0  0  0  0  0  0  0  0  0  0  0  0
  -11.8103   15.8022   73.6966 C   0  0  0  0  0  0  0  0  0  0  0  0
  -12.6594   15.5153   72.6113 C   0  0  0  0  0  0  0  0  0  0  0  0
  -12.1896   15.6561   71.2886 C   0  0  0  0  0  0  0  0  0  0  0  0
  -12.2497   15.6113   74.9888 F   0  0  0  0  0  0  0  0  0  0  0  0
   -6.5345   17.3733   68.3692 C   0  0  0  0  0  0  0  0  0  0  0  0
   -5.1243   17.1827   68.5807 C   0  0  0  0  0  0  0  0  0  0  0  0
   -4.4395   18.0514   67.8362 C   0  0  0  0  0  0  0  0  0  0  0  0
   -4.8691   19.0471   67.0676 C   0  0  0  0  0  0  0  0  0  0  0  0
   -6.2631   19.1640   66.9251 C   0  0  0  0  0  0  0  0  0  0  0  0
  -14.0963   14.9495   72.8510 C   0  0  0  0  0  0  0  0  0  0  0  0
   -6.9233   20.2691   66.0897 C   0  0  0  0  0  0  0  0  0  0  0  0
   -8.1459   20.3913   65.9829 O   0  0  0  0  0  0  0  0  0  0  0  0
   -6.1595   21.0066   65.4227 O   0  0  0  0  0  0  0  0  0  0  0  0
  1  2  2  0
  1  6  1  0
  1 11  1  0
  2  3  1  0
  3  4  1  0
  3  7  1  0
  4  9  2  0
  4  5  1  0
  5  6  1  0
  5  8  1  0
  6 10  2  0
  8 13  1  0
 11 12  3  0
 16 19  1  0
 17 25  1  0
 24 26  1  0
 26 27  2  0
 26 28  1  0
 13 20  2  0
 20 21  1  0
 21 22  2  0
 22 23  1  0
 23 24  2  0
 24 13  1  0
  7 18  2  0
 18 17  1  0
 17 16  2  0
 16 15  1  0
 15 14  2  0
 14  7  1  0
M  END

$$$$
No_329-gen_results_new/Mpro_initial_molecule_p3/2024-06-19-20-31-25/
     RDKit          3D

 28 30  0  0  0  0  0  0  0  0999 V2000
  -10.3383   15.1532   67.5971 C   0  0  0  0  0  0  0  0  0  0  0  0
  -10.7220   15.1619   68.8301 N   0  0  0  0  0  0  0  0  0  0  0  0
  -10.4044   16.2024   69.6852 N   0  0  0  0  0  0  0  0  0  0  0  0
   -9.7271   17.3221   69.2607 C   0  0  0  0  0  0  0  0  0  0  0  0
   -9.3095   17.3212   67.9557 N   0  0  0  0  0  0  0  0  0  0  0  0
   -9.5450   16.2958   67.0814 C   0  0  0  0  0  0  0  0  0  0  0  0
  -10.8644   16.0907   71.0374 C   0  0  0  0  0  0  0  0  0  0  0  0
   -8.5330   18.4792   67.4604 C   0  0  0  0  0  0  0  0  0  0  0  0
   -9.5433   18.2987   69.9938 O   0  0  0  0  0  0  0  0  0  0  0  0
   -9.1481   16.2876   65.9124 O   0  0  0  0  0  0  0  0  0  0  0  0
  -10.7304   14.0247   66.8209 C   0  0  0  0  0  0  0  0  0  0  0  0
  -11.1003   13.0895   66.2465 N   0  0  0  0  0  0  0  0  0  0  0  0
   -7.0275   18.2876   67.7219 C   0  0  0  0  0  0  0  0  0  0  0  0
  -10.0126   16.3511   72.1395 C   0  0  0  0  0  0  0  0  0  0  0  0
  -10.4883   16.2212   73.4591 C   0  0  0  0  0  0  0  0  0  0  0  0
  -11.8103   15.8022   73.6966 C   0  0  0  0  0  0  0  0  0  0  0  0
  -12.6594   15.5153   72.6113 C   0  0  0  0  0  0  0  0  0  0  0  0
  -12.1896   15.6561   71.2886 C   0  0  0  0  0  0  0  0  0  0  0  0
  -12.3486   15.5799   75.3255 Cl  0  0  0  0  0  0  0  0  0  0  0  0
   -6.4523   19.3079   67.8835 C   0  0  0  0  0  0  0  0  0  0  0  0
   -6.2543   20.3848   67.0158 C   0  0  0  0  0  0  0  0  0  0  0  0
   -5.0986   21.1564   66.8596 C   0  0  0  0  0  0  0  0  0  0  0  0
   -4.1811   21.0466   67.9256 C   0  0  0  0  0  0  0  0  0  0  0  0
   -4.2229   19.9414   68.9073 C   0  0  0  0  0  0  0  0  0  0  0  0
   -5.3080   19.1150   68.9049 C   0  0  0  0  0  0  0  0  0  0  0  0
   -5.0947   22.2062   66.0987 O   0  0  0  0  0  0  0  0  0  0  0  0
   -5.4503   18.3244   69.9021 O   0  0  0  0  0  0  0  0  0  0  0  0
   -5.7828   18.6678   71.2138 C   0  0  0  0  0  0  0  0  0  0  0  0
  1  2  2  0
  1  6  1  0
  1 11  1  0
  2  3  1  0
  3  4  1  0
  3  7  1  0
  4  9  2  0
  4  5  1  0
  5  6  1  0
  5  8  1  0
  6 10  2  0
  8 13  1  0
 11 12  3  0
 16 19  1  0
 13 20  1  0
 22 26  1  0
 25 27  1  0
 27 28  1  0
 20 21  2  0
 21 22  1  0
 22 23  2  0
 23 24  1  0
 24 25  2  0
 25 20  1  0
  7 18  2  0
 18 17  1  0
 17 16  2  0
 16 15  1  0
 15 14  2  0
 14  7  1  0
M  END

$$$$
No_330-gen_results_new/Mpro_initial_molecule_p3/2024-06-19-20-31-25/
     RDKit          3D

 25 27  0  0  0  0  0  0  0  0999 V2000
  -10.3383   15.1532   67.5971 C   0  0  0  0  0  0  0  0  0  0  0  0
  -10.7220   15.1619   68.8301 N   0  0  0  0  0  0  0  0  0  0  0  0
  -10.4044   16.2024   69.6852 N   0  0  0  0  0  0  0  0  0  0  0  0
   -9.7271   17.3221   69.2607 C   0  0  0  0  0  0  0  0  0  0  0  0
   -9.3095   17.3212   67.9557 N   0  0  0  0  0  0  0  0  0  0  0  0
   -9.5450   16.2958   67.0814 C   0  0  0  0  0  0  0  0  0  0  0  0
  -10.8644   16.0907   71.0374 C   0  0  0  0  0  0  0  0  0  0  0  0
   -8.5330   18.4792   67.4604 C   0  0  0  0  0  0  0  0  0  0  0  0
   -9.5433   18.2987   69.9938 O   0  0  0  0  0  0  0  0  0  0  0  0
   -9.1481   16.2876   65.9124 O   0  0  0  0  0  0  0  0  0  0  0  0
  -10.7304   14.0247   66.8209 C   0  0  0  0  0  0  0  0  0  0  0  0
  -11.1003   13.0895   66.2465 N   0  0  0  0  0  0  0  0  0  0  0  0
   -7.0275   18.2876   67.7219 C   0  0  0  0  0  0  0  0  0  0  0  0
  -10.0126   16.3511   72.1395 C   0  0  0  0  0  0  0  0  0  0  0  0
  -10.4883   16.2212   73.4591 C   0  0  0  0  0  0  0  0  0  0  0  0
  -11.8103   15.8022   73.6966 C   0  0  0  0  0  0  0  0  0  0  0  0
  -12.6594   15.5153   72.6113 C   0  0  0  0  0  0  0  0  0  0  0  0
  -12.1896   15.6561   71.2886 C   0  0  0  0  0  0  0  0  0  0  0  0
  -12.3486   15.5799   75.3255 Cl  0  0  0  0  0  0  0  0  0  0  0  0
   -6.4523   19.3079   67.8835 C   0  0  0  0  0  0  0  0  0  0  0  0
   -5.0368   19.2418   67.8299 N   0  0  0  0  0  0  0  0  0  0  0  0
   -4.6657   17.8491   67.5429 C   0  0  0  0  0  0  0  0  0  0  0  0
   -5.4062   16.7437   67.2945 C   0  0  0  0  0  0  0  0  0  0  0  0
   -6.7511   16.9839   67.3555 C   0  0  0  0  0  0  0  0  0  0  0  0
  -14.3635   14.8807   72.8232 Cl  0  0  0  0  0  0  0  0  0  0  0  0
  1  2  2  0
  1  6  1  0
  1 11  1  0
  2  3  1  0
  3  4  1  0
  3  7  1  0
  4  9  2  0
  4  5  1  0
  5  6  1  0
  5  8  1  0
  6 10  2  0
  8 13  1  0
 11 12  3  0
 16 19  1  0
 17 25  1  0
 13 20  2  0
 20 21  1  0
 21 22  2  0
 22 23  1  0
 23 24  2  0
 24 13  1  0
  7 18  2  0
 18 17  1  0
 17 16  2  0
 16 15  1  0
 15 14  2  0
 14  7  1  0
M  END

$$$$
No_331-gen_results_new/Mpro_initial_molecule_p3/2024-06-19-20-31-25/
     RDKit          3D

 28 30  0  0  0  0  0  0  0  0999 V2000
  -10.3383   15.1532   67.5971 C   0  0  0  0  0  0  0  0  0  0  0  0
  -10.7220   15.1619   68.8301 N   0  0  0  0  0  0  0  0  0  0  0  0
  -10.4044   16.2024   69.6852 N   0  0  0  0  0  0  0  0  0  0  0  0
   -9.7271   17.3221   69.2607 C   0  0  0  0  0  0  0  0  0  0  0  0
   -9.3095   17.3212   67.9557 N   0  0  0  0  0  0  0  0  0  0  0  0
   -9.5450   16.2958   67.0814 C   0  0  0  0  0  0  0  0  0  0  0  0
  -10.8644   16.0907   71.0374 C   0  0  0  0  0  0  0  0  0  0  0  0
   -8.5330   18.4792   67.4604 C   0  0  0  0  0  0  0  0  0  0  0  0
   -9.5433   18.2987   69.9938 O   0  0  0  0  0  0  0  0  0  0  0  0
   -9.1481   16.2876   65.9124 O   0  0  0  0  0  0  0  0  0  0  0  0
  -10.7304   14.0247   66.8209 C   0  0  0  0  0  0  0  0  0  0  0  0
  -11.1003   13.0895   66.2465 N   0  0  0  0  0  0  0  0  0  0  0  0
   -7.0275   18.2876   67.7219 C   0  0  0  0  0  0  0  0  0  0  0  0
  -10.0126   16.3511   72.1395 C   0  0  0  0  0  0  0  0  0  0  0  0
  -10.4883   16.2212   73.4591 C   0  0  0  0  0  0  0  0  0  0  0  0
  -11.8103   15.8022   73.6966 C   0  0  0  0  0  0  0  0  0  0  0  0
  -12.6594   15.5153   72.6113 C   0  0  0  0  0  0  0  0  0  0  0  0
  -12.1896   15.6561   71.2886 C   0  0  0  0  0  0  0  0  0  0  0  0
  -12.2768   15.6000   75.1088 C   0  0  0  0  0  0  0  0  0  0  0  0
   -6.4522   19.3092   67.8826 C   0  0  0  0  0  0  0  0  0  0  0  0
  -12.3537   14.5923   75.5994 O   0  0  0  0  0  0  0  0  0  0  0  0
  -12.4205   16.7483   75.8013 N   0  0  0  0  0  0  0  0  0  0  0  0
   -6.3700   20.4051   67.0253 C   0  0  0  0  0  0  0  0  0  0  0  0
   -5.2154   21.2045   66.8529 C   0  0  0  0  0  0  0  0  0  0  0  0
   -4.1104   20.6261   67.3645 C   0  0  0  0  0  0  0  0  0  0  0  0
   -3.9551   19.6374   68.3756 C   0  0  0  0  0  0  0  0  0  0  0  0
   -4.8944   19.0388   68.8042 C   0  0  0  0  0  0  0  0  0  0  0  0
   -4.9611   17.8030   69.5700 C   0  0  0  0  0  0  0  0  0  0  0  0
  1  2  2  0
  1  6  1  0
  1 11  1  0
  2  3  1  0
  3  4  1  0
  3  7  1  0
  4  9  2  0
  4  5  1  0
  5  6  1  0
  5  8  1  0
  6 10  2  0
  8 13  1  0
 11 12  3  0
 16 19  1  0
 13 20  1  0
 19 21  2  0
 19 22  1  0
 27 28  1  0
 20 23  2  0
 23 24  1  0
 24 25  2  0
 25 26  1  0
 26 27  2  0
 27 20  1  0
  7 18  2  0
 18 17  1  0
 17 16  2  0
 16 15  1  0
 15 14  2  0
 14  7  1  0
M  END

$$$$
No_332-gen_results_new/Mpro_initial_molecule_p3/2024-06-19-20-31-25/
     RDKit          3D

 28 30  0  0  0  0  0  0  0  0999 V2000
  -10.3383   15.1532   67.5971 C   0  0  0  0  0  0  0  0  0  0  0  0
  -10.7220   15.1619   68.8301 N   0  0  0  0  0  0  0  0  0  0  0  0
  -10.4044   16.2024   69.6852 N   0  0  0  0  0  0  0  0  0  0  0  0
   -9.7271   17.3221   69.2607 C   0  0  0  0  0  0  0  0  0  0  0  0
   -9.3095   17.3212   67.9557 N   0  0  0  0  0  0  0  0  0  0  0  0
   -9.5450   16.2958   67.0814 C   0  0  0  0  0  0  0  0  0  0  0  0
  -10.8644   16.0907   71.0374 C   0  0  0  0  0  0  0  0  0  0  0  0
   -8.5330   18.4792   67.4604 C   0  0  0  0  0  0  0  0  0  0  0  0
   -9.5433   18.2987   69.9938 O   0  0  0  0  0  0  0  0  0  0  0  0
   -9.1481   16.2876   65.9124 O   0  0  0  0  0  0  0  0  0  0  0  0
  -10.7304   14.0247   66.8209 C   0  0  0  0  0  0  0  0  0  0  0  0
  -11.1003   13.0895   66.2465 N   0  0  0  0  0  0  0  0  0  0  0  0
   -7.0275   18.2876   67.7219 C   0  0  0  0  0  0  0  0  0  0  0  0
  -10.0126   16.3511   72.1395 C   0  0  0  0  0  0  0  0  0  0  0  0
  -10.4883   16.2212   73.4591 C   0  0  0  0  0  0  0  0  0  0  0  0
  -11.8103   15.8022   73.6966 C   0  0  0  0  0  0  0  0  0  0  0  0
  -12.6594   15.5153   72.6113 C   0  0  0  0  0  0  0  0  0  0  0  0
  -12.1896   15.6561   71.2886 C   0  0  0  0  0  0  0  0  0  0  0  0
  -12.2768   15.6000   75.1088 C   0  0  0  0  0  0  0  0  0  0  0  0
   -6.4859   19.1440   67.9007 N   0  0  0  0  0  0  0  0  0  0  0  0
  -12.3537   14.5922   75.5993 O   0  0  0  0  0  0  0  0  0  0  0  0
  -12.8083   16.7348   75.7029 N   0  0  0  0  0  0  0  0  0  0  0  0
   -5.0850   19.0473   67.7921 C   0  0  0  0  0  0  0  0  0  0  0  0
   -4.6135   17.7849   67.2497 C   0  0  0  0  0  0  0  0  0  0  0  0
   -3.2357   17.5097   66.9809 C   0  0  0  0  0  0  0  0  0  0  0  0
   -2.4646   18.4231   67.2212 C   0  0  0  0  0  0  0  0  0  0  0  0
   -4.0709   19.9274   67.9811 C   0  0  0  0  0  0  0  0  0  0  0  0
   -2.7309   19.7371   67.7145 C   0  0  0  0  0  0  0  0  0  0  0  0
  1  2  2  0
  1  6  1  0
  1 11  1  0
  2  3  1  0
  3  4  1  0
  3  7  1  0
  4  9  2  0
  4  5  1  0
  5  6  1  0
  5  8  1  0
  6 10  2  0
  8 13  1  0
 11 12  3  0
 16 19  1  0
 13 20  1  0
 19 21  2  0
 19 22  1  0
 20 23  1  0
 23 24  2  0
 24 25  1  0
 25 26  2  0
 26 28  1  0
 28 27  2  0
 27 23  1  0
  7 18  2  0
 18 17  1  0
 17 16  2  0
 16 15  1  0
 15 14  2  0
 14  7  1  0
M  END

$$$$
No_333-gen_results_new/Mpro_initial_molecule_p3/2024-06-19-20-31-25/
     RDKit          3D

 28 30  0  0  0  0  0  0  0  0999 V2000
  -10.3383   15.1532   67.5971 C   0  0  0  0  0  0  0  0  0  0  0  0
  -10.7220   15.1619   68.8301 N   0  0  0  0  0  0  0  0  0  0  0  0
  -10.4044   16.2024   69.6852 N   0  0  0  0  0  0  0  0  0  0  0  0
   -9.7271   17.3221   69.2607 C   0  0  0  0  0  0  0  0  0  0  0  0
   -9.3095   17.3212   67.9557 N   0  0  0  0  0  0  0  0  0  0  0  0
   -9.5450   16.2958   67.0814 C   0  0  0  0  0  0  0  0  0  0  0  0
  -10.8644   16.0907   71.0374 C   0  0  0  0  0  0  0  0  0  0  0  0
   -8.5330   18.4792   67.4604 C   0  0  0  0  0  0  0  0  0  0  0  0
   -9.5433   18.2987   69.9938 O   0  0  0  0  0  0  0  0  0  0  0  0
   -9.1481   16.2876   65.9124 O   0  0  0  0  0  0  0  0  0  0  0  0
  -10.7304   14.0247   66.8209 C   0  0  0  0  0  0  0  0  0  0  0  0
  -11.1003   13.0895   66.2465 N   0  0  0  0  0  0  0  0  0  0  0  0
   -7.0275   18.2876   67.7219 C   0  0  0  0  0  0  0  0  0  0  0  0
  -10.0126   16.3511   72.1395 C   0  0  0  0  0  0  0  0  0  0  0  0
  -10.4883   16.2212   73.4591 C   0  0  0  0  0  0  0  0  0  0  0  0
  -11.8103   15.8022   73.6966 C   0  0  0  0  0  0  0  0  0  0  0  0
  -12.6594   15.5153   72.6113 C   0  0  0  0  0  0  0  0  0  0  0  0
  -12.1896   15.6561   71.2886 C   0  0  0  0  0  0  0  0  0  0  0  0
  -12.2768   15.6000   75.1088 C   0  0  0  0  0  0  0  0  0  0  0  0
   -6.4522   19.3092   67.8826 C   0  0  0  0  0  0  0  0  0  0  0  0
  -11.9582   16.3232   75.9332 O   0  0  0  0  0  0  0  0  0  0  0  0
   -6.3602   20.4039   67.0238 C   0  0  0  0  0  0  0  0  0  0  0  0
   -7.7584   20.6401   66.4547 C   0  0  0  0  0  0  0  0  0  0  0  0
   -8.8411   19.6422   66.7026 C   0  0  0  0  0  0  0  0  0  0  0  0
   -5.4991   21.3522   66.8153 O   0  0  0  0  0  0  0  0  0  0  0  0
  -12.7883   14.4784   75.3680 O   0  0  0  0  0  0  0  0  0  0  0  0
   -4.4861   21.1528   66.0286 C   0  0  0  0  0  0  0  0  0  0  0  0
   -4.0468   22.1778   65.4737 C   0  0  0  0  0  0  0  0  0  0  0  0
  1  2  2  0
  1  6  1  0
  1 11  1  0
  2  3  1  0
  3  4  1  0
  3  7  1  0
  4  9  2  0
  4  5  1  0
  5  6  1  0
  5  8  1  0
  6 10  2  0
 11 12  3  0
 16 19  1  0
 19 21  2  0
 22 25  1  0
 19 26  1  0
 25 27  1  0
 27 28  1  0
  8 13  2  0
 13 20  1  0
 20 22  2  0
 22 23  1  0
 23 24  2  0
 24  8  1  0
  7 18  2  0
 18 17  1  0
 17 16  2  0
 16 15  1  0
 15 14  2  0
 14  7  1  0
M  END

$$$$
No_334-gen_results_new/Mpro_initial_molecule_p3/2024-06-19-20-31-25/
     RDKit          3D

 28 30  0  0  0  0  0  0  0  0999 V2000
  -10.3383   15.1532   67.5971 C   0  0  0  0  0  0  0  0  0  0  0  0
  -10.7220   15.1619   68.8301 N   0  0  0  0  0  0  0  0  0  0  0  0
  -10.4044   16.2024   69.6852 N   0  0  0  0  0  0  0  0  0  0  0  0
   -9.7271   17.3221   69.2607 C   0  0  0  0  0  0  0  0  0  0  0  0
   -9.3095   17.3212   67.9557 N   0  0  0  0  0  0  0  0  0  0  0  0
   -9.5450   16.2958   67.0814 C   0  0  0  0  0  0  0  0  0  0  0  0
  -10.8644   16.0907   71.0374 C   0  0  0  0  0  0  0  0  0  0  0  0
   -8.5330   18.4792   67.4604 C   0  0  0  0  0  0  0  0  0  0  0  0
   -9.5433   18.2987   69.9938 O   0  0  0  0  0  0  0  0  0  0  0  0
   -9.1481   16.2876   65.9124 O   0  0  0  0  0  0  0  0  0  0  0  0
  -10.7304   14.0247   66.8209 C   0  0  0  0  0  0  0  0  0  0  0  0
  -11.1003   13.0895   66.2465 N   0  0  0  0  0  0  0  0  0  0  0  0
   -7.0275   18.2876   67.7219 C   0  0  0  0  0  0  0  0  0  0  0  0
  -10.0126   16.3511   72.1395 C   0  0  0  0  0  0  0  0  0  0  0  0
  -10.4883   16.2212   73.4591 C   0  0  0  0  0  0  0  0  0  0  0  0
  -11.8103   15.8022   73.6966 C   0  0  0  0  0  0  0  0  0  0  0  0
  -12.6594   15.5153   72.6113 C   0  0  0  0  0  0  0  0  0  0  0  0
  -12.1896   15.6561   71.2886 C   0  0  0  0  0  0  0  0  0  0  0  0
  -12.2484   15.6088   75.0145 O   0  0  0  0  0  0  0  0  0  0  0  0
   -6.5341   17.3731   68.3686 C   0  0  0  0  0  0  0  0  0  0  0  0
   -5.1307   17.1884   68.5569 C   0  0  0  0  0  0  0  0  0  0  0  0
   -6.2283   19.1886   66.9090 C   0  0  0  0  0  0  0  0  0  0  0  0
   -4.8273   19.0035   67.0389 C   0  0  0  0  0  0  0  0  0  0  0  0
   -4.3060   18.0196   67.7978 C   0  0  0  0  0  0  0  0  0  0  0  0
  -12.3371   16.7921   75.7211 C   0  0  0  0  0  0  0  0  0  0  0  0
  -14.0714   14.8949   72.8098 C   0  0  0  0  0  0  0  0  0  0  0  0
   -6.7632   20.1608   66.1395 F   0  0  0  0  0  0  0  0  0  0  0  0
   -4.5648   16.0740   69.4210 C   0  0  0  0  0  0  0  0  0  0  0  0
  1  2  2  0
  1  6  1  0
  1 11  1  0
  2  3  1  0
  3  4  1  0
  3  7  1  0
  4  9  2  0
  4  5  1  0
  5  6  1  0
  5  8  1  0
  6 10  2  0
  8 13  1  0
 11 12  3  0
 16 19  1  0
 19 25  1  0
 17 26  1  0
 22 27  1  0
 21 28  1  0
 13 20  2  0
 20 21  1  0
 21 24  2  0
 24 23  1  0
 23 22  2  0
 22 13  1  0
  7 18  2  0
 18 17  1  0
 17 16  2  0
 16 15  1  0
 15 14  2  0
 14  7  1  0
M  END

$$$$
No_335-gen_results_new/Mpro_initial_molecule_p3/2024-06-19-20-31-25/
     RDKit          3D

 28 30  0  0  0  0  0  0  0  0999 V2000
  -10.3383   15.1532   67.5971 C   0  0  0  0  0  0  0  0  0  0  0  0
  -10.7220   15.1619   68.8301 N   0  0  0  0  0  0  0  0  0  0  0  0
  -10.4044   16.2024   69.6852 N   0  0  0  0  0  0  0  0  0  0  0  0
   -9.7271   17.3221   69.2607 C   0  0  0  0  0  0  0  0  0  0  0  0
   -9.3095   17.3212   67.9557 N   0  0  0  0  0  0  0  0  0  0  0  0
   -9.5450   16.2958   67.0814 C   0  0  0  0  0  0  0  0  0  0  0  0
  -10.8644   16.0907   71.0374 C   0  0  0  0  0  0  0  0  0  0  0  0
   -8.5330   18.4792   67.4604 C   0  0  0  0  0  0  0  0  0  0  0  0
   -9.5433   18.2987   69.9938 O   0  0  0  0  0  0  0  0  0  0  0  0
   -9.1481   16.2876   65.9124 O   0  0  0  0  0  0  0  0  0  0  0  0
  -10.7304   14.0247   66.8209 C   0  0  0  0  0  0  0  0  0  0  0  0
  -11.1003   13.0895   66.2465 N   0  0  0  0  0  0  0  0  0  0  0  0
   -7.0275   18.2876   67.7219 C   0  0  0  0  0  0  0  0  0  0  0  0
  -10.0126   16.3511   72.1395 C   0  0  0  0  0  0  0  0  0  0  0  0
  -10.4883   16.2212   73.4591 C   0  0  0  0  0  0  0  0  0  0  0  0
  -11.8103   15.8022   73.6966 C   0  0  0  0  0  0  0  0  0  0  0  0
  -12.6594   15.5153   72.6113 C   0  0  0  0  0  0  0  0  0  0  0  0
  -12.1896   15.6561   71.2886 C   0  0  0  0  0  0  0  0  0  0  0  0
  -12.3486   15.5799   75.3255 Cl  0  0  0  0  0  0  0  0  0  0  0  0
   -6.5344   17.3734   68.3696 C   0  0  0  0  0  0  0  0  0  0  0  0
   -5.1249   17.1828   68.5820 C   0  0  0  0  0  0  0  0  0  0  0  0
   -4.4394   18.0509   67.8370 C   0  0  0  0  0  0  0  0  0  0  0  0
   -4.8688   19.0466   67.0682 C   0  0  0  0  0  0  0  0  0  0  0  0
   -6.2626   19.1636   66.9253 C   0  0  0  0  0  0  0  0  0  0  0  0
  -13.9945   15.0201   72.7823 F   0  0  0  0  0  0  0  0  0  0  0  0
   -3.9997   19.9980   66.3257 C   0  0  0  0  0  0  0  0  0  0  0  0
   -3.9266   20.0053   65.1105 N   0  0  0  0  0  0  0  0  0  0  0  0
   -4.2947   18.9644   64.2455 C   0  0  0  0  0  0  0  0  0  0  0  0
  1  2  2  0
  1  6  1  0
  1 11  1  0
  2  3  1  0
  3  4  1  0
  3  7  1  0
  4  9  2  0
  4  5  1  0
  5  6  1  0
  5  8  1  0
  6 10  2  0
  8 13  1  0
 11 12  3  0
 16 19  1  0
 17 25  1  0
 23 26  1  0
 26 27  1  0
 27 28  1  0
 13 20  2  0
 20 21  1  0
 21 22  2  0
 22 23  1  0
 23 24  2  0
 24 13  1  0
  7 18  2  0
 18 17  1  0
 17 16  2  0
 16 15  1  0
 15 14  2  0
 14  7  1  0
M  END

$$$$
No_336-gen_results_new/Mpro_initial_molecule_p3/2024-06-19-20-31-25/
     RDKit          3D

 28 30  0  0  0  0  0  0  0  0999 V2000
  -10.3383   15.1532   67.5971 C   0  0  0  0  0  0  0  0  0  0  0  0
  -10.7220   15.1619   68.8301 N   0  0  0  0  0  0  0  0  0  0  0  0
  -10.4044   16.2024   69.6852 N   0  0  0  0  0  0  0  0  0  0  0  0
   -9.7271   17.3221   69.2607 C   0  0  0  0  0  0  0  0  0  0  0  0
   -9.3095   17.3212   67.9557 N   0  0  0  0  0  0  0  0  0  0  0  0
   -9.5450   16.2958   67.0814 C   0  0  0  0  0  0  0  0  0  0  0  0
  -10.8644   16.0907   71.0374 C   0  0  0  0  0  0  0  0  0  0  0  0
   -8.5330   18.4792   67.4604 C   0  0  0  0  0  0  0  0  0  0  0  0
   -9.5433   18.2987   69.9938 O   0  0  0  0  0  0  0  0  0  0  0  0
   -9.1481   16.2876   65.9124 O   0  0  0  0  0  0  0  0  0  0  0  0
  -10.7304   14.0247   66.8209 C   0  0  0  0  0  0  0  0  0  0  0  0
  -11.1003   13.0895   66.2465 N   0  0  0  0  0  0  0  0  0  0  0  0
   -7.0275   18.2876   67.7219 C   0  0  0  0  0  0  0  0  0  0  0  0
  -10.0126   16.3511   72.1395 C   0  0  0  0  0  0  0  0  0  0  0  0
  -10.4883   16.2212   73.4591 C   0  0  0  0  0  0  0  0  0  0  0  0
  -11.8103   15.8022   73.6966 C   0  0  0  0  0  0  0  0  0  0  0  0
  -12.6594   15.5153   72.6113 C   0  0  0  0  0  0  0  0  0  0  0  0
  -12.1896   15.6561   71.2886 C   0  0  0  0  0  0  0  0  0  0  0  0
  -12.3486   15.5799   75.3255 Cl  0  0  0  0  0  0  0  0  0  0  0  0
   -6.5344   17.3734   68.3696 C   0  0  0  0  0  0  0  0  0  0  0  0
   -5.1249   17.1828   68.5820 C   0  0  0  0  0  0  0  0  0  0  0  0
   -4.2977   17.9477   67.7740 C   0  0  0  0  0  0  0  0  0  0  0  0
   -4.8005   18.8999   66.9631 C   0  0  0  0  0  0  0  0  0  0  0  0
   -6.2838   19.2544   67.0527 C   0  0  0  0  0  0  0  0  0  0  0  0
  -14.1199   14.9543   72.8037 C   0  0  0  0  0  0  0  0  0  0  0  0
   -6.7247   20.2549   66.2049 O   0  0  0  0  0  0  0  0  0  0  0  0
   -4.6657   16.0518   69.2846 O   0  0  0  0  0  0  0  0  0  0  0  0
   -4.5437   14.9537   68.9286 C   0  0  0  0  0  0  0  0  0  0  0  0
  1  2  2  0
  1  6  1  0
  1 11  1  0
  2  3  1  0
  3  4  1  0
  3  7  1  0
  4  9  2  0
  4  5  1  0
  5  6  1  0
  5  8  1  0
  6 10  2  0
  8 13  1  0
 11 12  3  0
 16 19  1  0
 17 25  1  0
 24 26  1  0
 21 27  1  0
 27 28  1  0
 13 20  2  0
 20 21  1  0
 21 22  2  0
 22 23  1  0
 23 24  2  0
 24 13  1  0
  7 18  2  0
 18 17  1  0
 17 16  2  0
 16 15  1  0
 15 14  2  0
 14  7  1  0
M  END

$$$$
No_337-gen_results_new/Mpro_initial_molecule_p3/2024-06-19-20-31-25/
     RDKit          3D

 28 30  0  0  0  0  0  0  0  0999 V2000
  -10.3383   15.1532   67.5971 C   0  0  0  0  0  0  0  0  0  0  0  0
  -10.7220   15.1619   68.8301 N   0  0  0  0  0  0  0  0  0  0  0  0
  -10.4044   16.2024   69.6852 N   0  0  0  0  0  0  0  0  0  0  0  0
   -9.7271   17.3221   69.2607 C   0  0  0  0  0  0  0  0  0  0  0  0
   -9.3095   17.3212   67.9557 N   0  0  0  0  0  0  0  0  0  0  0  0
   -9.5450   16.2958   67.0814 C   0  0  0  0  0  0  0  0  0  0  0  0
  -10.8644   16.0907   71.0374 C   0  0  0  0  0  0  0  0  0  0  0  0
   -8.5330   18.4792   67.4604 C   0  0  0  0  0  0  0  0  0  0  0  0
   -9.5433   18.2987   69.9938 O   0  0  0  0  0  0  0  0  0  0  0  0
   -9.1481   16.2876   65.9124 O   0  0  0  0  0  0  0  0  0  0  0  0
  -10.7304   14.0247   66.8209 C   0  0  0  0  0  0  0  0  0  0  0  0
  -11.1003   13.0895   66.2465 N   0  0  0  0  0  0  0  0  0  0  0  0
   -7.0275   18.2876   67.7219 C   0  0  0  0  0  0  0  0  0  0  0  0
  -10.0126   16.3511   72.1395 C   0  0  0  0  0  0  0  0  0  0  0  0
  -10.4883   16.2212   73.4591 C   0  0  0  0  0  0  0  0  0  0  0  0
  -11.8103   15.8022   73.6966 C   0  0  0  0  0  0  0  0  0  0  0  0
  -12.6594   15.5153   72.6113 C   0  0  0  0  0  0  0  0  0  0  0  0
  -12.1896   15.6561   71.2886 C   0  0  0  0  0  0  0  0  0  0  0  0
  -12.2768   15.6000   75.1088 C   0  0  0  0  0  0  0  0  0  0  0  0
   -6.3059   19.3590   66.9154 C   0  0  0  0  0  0  0  0  0  0  0  0
   -6.9578   20.4797   66.4322 C   0  0  0  0  0  0  0  0  0  0  0  0
   -8.3628   20.5494   66.3744 C   0  0  0  0  0  0  0  0  0  0  0  0
   -9.1835   19.4925   66.8327 C   0  0  0  0  0  0  0  0  0  0  0  0
  -11.9787   16.5269   75.8866 N   0  0  0  0  0  0  0  0  0  0  0  0
   -6.1297   21.4526   66.0050 F   0  0  0  0  0  0  0  0  0  0  0  0
  -12.6503   14.5281   75.4131 O   0  0  0  0  0  0  0  0  0  0  0  0
   -4.9492   19.3044   67.1918 O   0  0  0  0  0  0  0  0  0  0  0  0
   -4.2236   18.7067   66.3140 C   0  0  0  0  0  0  0  0  0  0  0  0
  1  2  2  0
  1  6  1  0
  1 11  1  0
  2  3  1  0
  3  4  1  0
  3  7  1  0
  4  9  2  0
  4  5  1  0
  5  6  1  0
  5  8  1  0
  6 10  2  0
 11 12  3  0
 16 19  1  0
 19 24  1  0
 21 25  1  0
 19 26  2  0
 20 27  1  0
 27 28  1  0
  8 13  2  0
 13 20  1  0
 20 21  2  0
 21 22  1  0
 22 23  2  0
 23  8  1  0
  7 18  2  0
 18 17  1  0
 17 16  2  0
 16 15  1  0
 15 14  2  0
 14  7  1  0
M  END

$$$$
No_338-gen_results_new/Mpro_initial_molecule_p3/2024-06-19-20-31-25/
     RDKit          3D

 28 30  0  0  0  0  0  0  0  0999 V2000
  -10.3383   15.1532   67.5971 C   0  0  0  0  0  0  0  0  0  0  0  0
  -10.7220   15.1619   68.8301 N   0  0  0  0  0  0  0  0  0  0  0  0
  -10.4044   16.2024   69.6852 N   0  0  0  0  0  0  0  0  0  0  0  0
   -9.7271   17.3221   69.2607 C   0  0  0  0  0  0  0  0  0  0  0  0
   -9.3095   17.3212   67.9557 N   0  0  0  0  0  0  0  0  0  0  0  0
   -9.5450   16.2958   67.0814 C   0  0  0  0  0  0  0  0  0  0  0  0
  -10.8644   16.0907   71.0374 C   0  0  0  0  0  0  0  0  0  0  0  0
   -8.5330   18.4792   67.4604 C   0  0  0  0  0  0  0  0  0  0  0  0
   -9.5433   18.2987   69.9938 O   0  0  0  0  0  0  0  0  0  0  0  0
   -9.1481   16.2876   65.9124 O   0  0  0  0  0  0  0  0  0  0  0  0
  -10.7304   14.0247   66.8209 C   0  0  0  0  0  0  0  0  0  0  0  0
  -11.1003   13.0895   66.2465 N   0  0  0  0  0  0  0  0  0  0  0  0
   -7.0275   18.2876   67.7219 C   0  0  0  0  0  0  0  0  0  0  0  0
  -10.0126   16.3511   72.1395 C   0  0  0  0  0  0  0  0  0  0  0  0
  -10.4883   16.2212   73.4591 C   0  0  0  0  0  0  0  0  0  0  0  0
  -11.8103   15.8022   73.6966 C   0  0  0  0  0  0  0  0  0  0  0  0
  -12.6594   15.5153   72.6113 C   0  0  0  0  0  0  0  0  0  0  0  0
  -12.1896   15.6561   71.2886 C   0  0  0  0  0  0  0  0  0  0  0  0
  -12.2768   15.6000   75.1088 C   0  0  0  0  0  0  0  0  0  0  0  0
   -6.5341   17.3729   68.3685 C   0  0  0  0  0  0  0  0  0  0  0  0
   -5.1249   17.1827   68.5818 C   0  0  0  0  0  0  0  0  0  0  0  0
   -4.2977   17.9486   67.7745 C   0  0  0  0  0  0  0  0  0  0  0  0
   -4.8006   18.9009   66.9638 C   0  0  0  0  0  0  0  0  0  0  0  0
   -6.2037   19.0663   66.8226 C   0  0  0  0  0  0  0  0  0  0  0  0
  -12.3528   14.5928   75.5997 O   0  0  0  0  0  0  0  0  0  0  0  0
  -12.2003   16.7298   75.8912 N   0  0  0  0  0  0  0  0  0  0  0  0
  -14.3066   14.8803   72.8821 Cl  0  0  0  0  0  0  0  0  0  0  0  0
   -6.7526   20.0020   65.9541 O   0  0  0  0  0  0  0  0  0  0  0  0
  1  2  2  0
  1  6  1  0
  1 11  1  0
  2  3  1  0
  3  4  1  0
  3  7  1  0
  4  9  2  0
  4  5  1  0
  5  6  1  0
  5  8  1  0
  6 10  2  0
  8 13  1  0
 11 12  3  0
 16 19  1  0
 19 25  2  0
 19 26  1  0
 17 27  1  0
 24 28  1  0
 13 20  2  0
 20 21  1  0
 21 22  2  0
 22 23  1  0
 23 24  2  0
 24 13  1  0
  7 18  2  0
 18 17  1  0
 17 16  2  0
 16 15  1  0
 15 14  2  0
 14  7  1  0
M  END

$$$$
No_339-gen_results_new/Mpro_initial_molecule_p3/2024-06-19-20-31-25/
     RDKit          3D

 28 30  0  0  0  0  0  0  0  0999 V2000
  -10.3383   15.1532   67.5971 C   0  0  0  0  0  0  0  0  0  0  0  0
  -10.7220   15.1619   68.8301 N   0  0  0  0  0  0  0  0  0  0  0  0
  -10.4044   16.2024   69.6852 N   0  0  0  0  0  0  0  0  0  0  0  0
   -9.7271   17.3221   69.2607 C   0  0  0  0  0  0  0  0  0  0  0  0
   -9.3095   17.3212   67.9557 N   0  0  0  0  0  0  0  0  0  0  0  0
   -9.5450   16.2958   67.0814 C   0  0  0  0  0  0  0  0  0  0  0  0
  -10.8644   16.0907   71.0374 C   0  0  0  0  0  0  0  0  0  0  0  0
   -8.5330   18.4792   67.4604 C   0  0  0  0  0  0  0  0  0  0  0  0
   -9.5433   18.2987   69.9938 O   0  0  0  0  0  0  0  0  0  0  0  0
   -9.1481   16.2876   65.9124 O   0  0  0  0  0  0  0  0  0  0  0  0
  -10.7304   14.0247   66.8209 C   0  0  0  0  0  0  0  0  0  0  0  0
  -11.1003   13.0895   66.2465 N   0  0  0  0  0  0  0  0  0  0  0  0
   -7.0275   18.2876   67.7219 C   0  0  0  0  0  0  0  0  0  0  0  0
  -10.0126   16.3511   72.1395 C   0  0  0  0  0  0  0  0  0  0  0  0
  -10.4883   16.2212   73.4591 C   0  0  0  0  0  0  0  0  0  0  0  0
  -11.8103   15.8022   73.6966 C   0  0  0  0  0  0  0  0  0  0  0  0
  -12.6594   15.5153   72.6113 C   0  0  0  0  0  0  0  0  0  0  0  0
  -12.1896   15.6561   71.2886 C   0  0  0  0  0  0  0  0  0  0  0  0
  -12.3486   15.5799   75.3255 Cl  0  0  0  0  0  0  0  0  0  0  0  0
   -6.3058   19.3592   66.9157 C   0  0  0  0  0  0  0  0  0  0  0  0
   -4.9894   19.4432   66.9687 C   0  0  0  0  0  0  0  0  0  0  0  0
   -4.2885   20.4306   66.2890 C   0  0  0  0  0  0  0  0  0  0  0  0
   -5.0487   21.4695   65.8829 N   0  0  0  0  0  0  0  0  0  0  0  0
   -6.3922   21.4441   65.8392 C   0  0  0  0  0  0  0  0  0  0  0  0
   -7.0762   20.4082   66.3865 C   0  0  0  0  0  0  0  0  0  0  0  0
   -2.8080   20.5180   66.3755 C   0  0  0  0  0  0  0  0  0  0  0  0
   -2.2426   19.6130   66.9718 O   0  0  0  0  0  0  0  0  0  0  0  0
   -2.2011   21.2621   65.4896 O   0  0  0  0  0  0  0  0  0  0  0  0
  1  2  2  0
  1  6  1  0
  1 11  1  0
  2  3  1  0
  3  4  1  0
  3  7  1  0
  4  9  2  0
  4  5  1  0
  5  6  1  0
  5  8  1  0
  6 10  2  0
  8 13  1  0
 11 12  3  0
 16 19  1  0
 13 20  1  0
 22 26  1  0
 26 27  2  0
 26 28  1  0
 20 21  2  0
 21 22  1  0
 22 23  2  0
 23 24  1  0
 24 25  2  0
 25 20  1  0
  7 18  2  0
 18 17  1  0
 17 16  2  0
 16 15  1  0
 15 14  2  0
 14  7  1  0
M  END

$$$$
No_340-gen_results_new/Mpro_initial_molecule_p3/2024-06-19-20-31-25/
     RDKit          3D

 28 30  0  0  0  0  0  0  0  0999 V2000
  -10.3383   15.1532   67.5971 C   0  0  0  0  0  0  0  0  0  0  0  0
  -10.7220   15.1619   68.8301 N   0  0  0  0  0  0  0  0  0  0  0  0
  -10.4044   16.2024   69.6852 N   0  0  0  0  0  0  0  0  0  0  0  0
   -9.7271   17.3221   69.2607 C   0  0  0  0  0  0  0  0  0  0  0  0
   -9.3095   17.3212   67.9557 N   0  0  0  0  0  0  0  0  0  0  0  0
   -9.5450   16.2958   67.0814 C   0  0  0  0  0  0  0  0  0  0  0  0
  -10.8644   16.0907   71.0374 C   0  0  0  0  0  0  0  0  0  0  0  0
   -8.5330   18.4792   67.4604 C   0  0  0  0  0  0  0  0  0  0  0  0
   -9.5433   18.2987   69.9938 O   0  0  0  0  0  0  0  0  0  0  0  0
   -9.1481   16.2876   65.9124 O   0  0  0  0  0  0  0  0  0  0  0  0
  -10.7304   14.0247   66.8209 C   0  0  0  0  0  0  0  0  0  0  0  0
  -11.1003   13.0895   66.2465 N   0  0  0  0  0  0  0  0  0  0  0  0
   -7.0275   18.2876   67.7219 C   0  0  0  0  0  0  0  0  0  0  0  0
  -10.0126   16.3511   72.1395 C   0  0  0  0  0  0  0  0  0  0  0  0
  -10.4883   16.2212   73.4591 C   0  0  0  0  0  0  0  0  0  0  0  0
  -11.8103   15.8022   73.6966 C   0  0  0  0  0  0  0  0  0  0  0  0
  -12.6594   15.5153   72.6113 C   0  0  0  0  0  0  0  0  0  0  0  0
  -12.1896   15.6561   71.2886 C   0  0  0  0  0  0  0  0  0  0  0  0
  -12.2768   15.6000   75.1088 C   0  0  0  0  0  0  0  0  0  0  0  0
   -6.3059   19.3590   66.9154 C   0  0  0  0  0  0  0  0  0  0  0  0
   -4.9893   19.4432   66.9685 C   0  0  0  0  0  0  0  0  0  0  0  0
   -4.2885   20.4304   66.2887 C   0  0  0  0  0  0  0  0  0  0  0  0
   -4.9684   21.5145   65.8586 C   0  0  0  0  0  0  0  0  0  0  0  0
   -6.3744   21.4842   65.8345 C   0  0  0  0  0  0  0  0  0  0  0  0
   -7.0549   20.4513   66.4027 C   0  0  0  0  0  0  0  0  0  0  0  0
  -12.3532   14.5920   75.5994 O   0  0  0  0  0  0  0  0  0  0  0  0
  -12.4568   16.7008   75.7589 O   0  0  0  0  0  0  0  0  0  0  0  0
   -4.2273   22.5331   65.2505 F   0  0  0  0  0  0  0  0  0  0  0  0
  1  2  2  0
  1  6  1  0
  1 11  1  0
  2  3  1  0
  3  4  1  0
  3  7  1  0
  4  9  2  0
  4  5  1  0
  5  6  1  0
  5  8  1  0
  6 10  2  0
  8 13  1  0
 11 12  3  0
 16 19  1  0
 13 20  1  0
 19 26  2  0
 19 27  1  0
 23 28  1  0
 20 21  2  0
 21 22  1  0
 22 23  2  0
 23 24  1  0
 24 25  2  0
 25 20  1  0
  7 18  2  0
 18 17  1  0
 17 16  2  0
 16 15  1  0
 15 14  2  0
 14  7  1  0
M  END

$$$$
No_341-gen_results_new/Mpro_initial_molecule_p3/2024-06-19-20-31-25/
     RDKit          3D

 28 30  0  0  0  0  0  0  0  0999 V2000
  -10.3383   15.1532   67.5971 C   0  0  0  0  0  0  0  0  0  0  0  0
  -10.7220   15.1619   68.8301 N   0  0  0  0  0  0  0  0  0  0  0  0
  -10.4044   16.2024   69.6852 N   0  0  0  0  0  0  0  0  0  0  0  0
   -9.7271   17.3221   69.2607 C   0  0  0  0  0  0  0  0  0  0  0  0
   -9.3095   17.3212   67.9557 N   0  0  0  0  0  0  0  0  0  0  0  0
   -9.5450   16.2958   67.0814 C   0  0  0  0  0  0  0  0  0  0  0  0
  -10.8644   16.0907   71.0374 C   0  0  0  0  0  0  0  0  0  0  0  0
   -8.5330   18.4792   67.4604 C   0  0  0  0  0  0  0  0  0  0  0  0
   -9.5433   18.2987   69.9938 O   0  0  0  0  0  0  0  0  0  0  0  0
   -9.1481   16.2876   65.9124 O   0  0  0  0  0  0  0  0  0  0  0  0
  -10.7304   14.0247   66.8209 C   0  0  0  0  0  0  0  0  0  0  0  0
  -11.1003   13.0895   66.2465 N   0  0  0  0  0  0  0  0  0  0  0  0
   -7.0275   18.2876   67.7219 C   0  0  0  0  0  0  0  0  0  0  0  0
  -10.0126   16.3511   72.1395 C   0  0  0  0  0  0  0  0  0  0  0  0
  -10.4883   16.2212   73.4591 C   0  0  0  0  0  0  0  0  0  0  0  0
  -11.8103   15.8022   73.6966 C   0  0  0  0  0  0  0  0  0  0  0  0
  -12.6594   15.5153   72.6113 C   0  0  0  0  0  0  0  0  0  0  0  0
  -12.1896   15.6561   71.2886 C   0  0  0  0  0  0  0  0  0  0  0  0
  -12.2484   15.6088   75.0145 O   0  0  0  0  0  0  0  0  0  0  0  0
   -6.3059   19.3591   66.9155 C   0  0  0  0  0  0  0  0  0  0  0  0
   -6.9559   20.4797   66.4335 C   0  0  0  0  0  0  0  0  0  0  0  0
   -8.3617   20.5503   66.3752 C   0  0  0  0  0  0  0  0  0  0  0  0
   -9.1828   19.4927   66.8326 C   0  0  0  0  0  0  0  0  0  0  0  0
   -6.0552   21.4492   65.9846 N   0  0  0  0  0  0  0  0  0  0  0  0
  -11.8820   16.5249   75.9080 C   0  0  0  0  0  0  0  0  0  0  0  0
   -5.0035   19.1415   67.1999 N   0  0  0  0  0  0  0  0  0  0  0  0
   -4.2668   18.2678   67.8435 C   0  0  0  0  0  0  0  0  0  0  0  0
   -3.7308   17.2116   67.1553 C   0  0  0  0  0  0  0  0  0  0  0  0
  1  2  2  0
  1  6  1  0
  1 11  1  0
  2  3  1  0
  3  4  1  0
  3  7  1  0
  4  9  2  0
  4  5  1  0
  5  6  1  0
  5  8  1  0
  6 10  2  0
 11 12  3  0
 16 19  1  0
 21 24  1  0
 19 25  1  0
 20 26  1  0
 26 27  1  0
 27 28  1  0
  8 13  2  0
 13 20  1  0
 20 21  2  0
 21 22  1  0
 22 23  2  0
 23  8  1  0
  7 18  2  0
 18 17  1  0
 17 16  2  0
 16 15  1  0
 15 14  2  0
 14  7  1  0
M  END

$$$$
No_342-gen_results_new/Mpro_initial_molecule_p3/2024-06-19-20-31-25/
     RDKit          3D

 28 30  0  0  0  0  0  0  0  0999 V2000
  -10.3383   15.1532   67.5971 C   0  0  0  0  0  0  0  0  0  0  0  0
  -10.7220   15.1619   68.8301 N   0  0  0  0  0  0  0  0  0  0  0  0
  -10.4044   16.2024   69.6852 N   0  0  0  0  0  0  0  0  0  0  0  0
   -9.7271   17.3221   69.2607 C   0  0  0  0  0  0  0  0  0  0  0  0
   -9.3095   17.3212   67.9557 N   0  0  0  0  0  0  0  0  0  0  0  0
   -9.5450   16.2958   67.0814 C   0  0  0  0  0  0  0  0  0  0  0  0
  -10.8644   16.0907   71.0374 C   0  0  0  0  0  0  0  0  0  0  0  0
   -8.5330   18.4792   67.4604 C   0  0  0  0  0  0  0  0  0  0  0  0
   -9.5433   18.2987   69.9938 O   0  0  0  0  0  0  0  0  0  0  0  0
   -9.1481   16.2876   65.9124 O   0  0  0  0  0  0  0  0  0  0  0  0
  -10.7304   14.0247   66.8209 C   0  0  0  0  0  0  0  0  0  0  0  0
  -11.1003   13.0895   66.2465 N   0  0  0  0  0  0  0  0  0  0  0  0
   -7.0275   18.2876   67.7219 C   0  0  0  0  0  0  0  0  0  0  0  0
  -10.0126   16.3511   72.1395 C   0  0  0  0  0  0  0  0  0  0  0  0
  -10.4883   16.2212   73.4591 C   0  0  0  0  0  0  0  0  0  0  0  0
  -11.8103   15.8022   73.6966 C   0  0  0  0  0  0  0  0  0  0  0  0
  -12.6594   15.5153   72.6113 C   0  0  0  0  0  0  0  0  0  0  0  0
  -12.1896   15.6561   71.2886 C   0  0  0  0  0  0  0  0  0  0  0  0
  -12.2768   15.6000   75.1088 C   0  0  0  0  0  0  0  0  0  0  0  0
   -6.5341   17.3729   68.3685 C   0  0  0  0  0  0  0  0  0  0  0  0
   -5.1308   17.1882   68.5568 C   0  0  0  0  0  0  0  0  0  0  0  0
   -6.2282   19.1886   66.9092 C   0  0  0  0  0  0  0  0  0  0  0  0
   -4.9265   18.9794   67.1273 C   0  0  0  0  0  0  0  0  0  0  0  0
   -4.3254   18.0459   67.8610 C   0  0  0  0  0  0  0  0  0  0  0  0
  -12.5818   16.5942   75.6961 O   0  0  0  0  0  0  0  0  0  0  0  0
  -12.1192   14.5199   75.5992 O   0  0  0  0  0  0  0  0  0  0  0  0
  -14.0777   14.9559   72.8082 C   0  0  0  0  0  0  0  0  0  0  0  0
   -6.9109   20.4775   65.9567 Cl  0  0  0  0  0  0  0  0  0  0  0  0
  1  2  2  0
  1  6  1  0
  1 11  1  0
  2  3  1  0
  3  4  1  0
  3  7  1  0
  4  9  2  0
  4  5  1  0
  5  6  1  0
  5  8  1  0
  6 10  2  0
  8 13  1  0
 11 12  3  0
 16 19  1  0
 19 25  2  0
 19 26  1  0
 17 27  1  0
 22 28  1  0
 13 20  2  0
 20 21  1  0
 21 24  2  0
 24 23  1  0
 23 22  2  0
 22 13  1  0
  7 18  2  0
 18 17  1  0
 17 16  2  0
 16 15  1  0
 15 14  2  0
 14  7  1  0
M  END

$$$$
No_343-gen_results_new/Mpro_initial_molecule_p3/2024-06-19-20-31-25/
     RDKit          3D

 28 30  0  0  0  0  0  0  0  0999 V2000
  -10.3383   15.1532   67.5971 C   0  0  0  0  0  0  0  0  0  0  0  0
  -10.7220   15.1619   68.8301 N   0  0  0  0  0  0  0  0  0  0  0  0
  -10.4044   16.2024   69.6852 N   0  0  0  0  0  0  0  0  0  0  0  0
   -9.7271   17.3221   69.2607 C   0  0  0  0  0  0  0  0  0  0  0  0
   -9.3095   17.3212   67.9557 N   0  0  0  0  0  0  0  0  0  0  0  0
   -9.5450   16.2958   67.0814 C   0  0  0  0  0  0  0  0  0  0  0  0
  -10.8644   16.0907   71.0374 C   0  0  0  0  0  0  0  0  0  0  0  0
   -8.5330   18.4792   67.4604 C   0  0  0  0  0  0  0  0  0  0  0  0
   -9.5433   18.2987   69.9938 O   0  0  0  0  0  0  0  0  0  0  0  0
   -9.1481   16.2876   65.9124 O   0  0  0  0  0  0  0  0  0  0  0  0
  -10.7304   14.0247   66.8209 C   0  0  0  0  0  0  0  0  0  0  0  0
  -11.1003   13.0895   66.2465 N   0  0  0  0  0  0  0  0  0  0  0  0
   -7.0275   18.2876   67.7219 C   0  0  0  0  0  0  0  0  0  0  0  0
  -10.0126   16.3511   72.1395 C   0  0  0  0  0  0  0  0  0  0  0  0
  -10.4883   16.2212   73.4591 C   0  0  0  0  0  0  0  0  0  0  0  0
  -11.8103   15.8022   73.6966 C   0  0  0  0  0  0  0  0  0  0  0  0
  -12.6594   15.5153   72.6113 C   0  0  0  0  0  0  0  0  0  0  0  0
  -12.1896   15.6561   71.2886 C   0  0  0  0  0  0  0  0  0  0  0  0
  -12.2768   15.6000   75.1088 C   0  0  0  0  0  0  0  0  0  0  0  0
   -6.5341   17.3729   68.3685 C   0  0  0  0  0  0  0  0  0  0  0  0
   -5.1249   17.1827   68.5818 C   0  0  0  0  0  0  0  0  0  0  0  0
   -4.4393   18.0516   67.8378 C   0  0  0  0  0  0  0  0  0  0  0  0
   -4.8689   19.0478   67.0695 C   0  0  0  0  0  0  0  0  0  0  0  0
   -6.2627   19.1643   66.9261 C   0  0  0  0  0  0  0  0  0  0  0  0
  -12.3528   14.5927   75.5996 O   0  0  0  0  0  0  0  0  0  0  0  0
  -12.8123   16.6655   75.6553 O   0  0  0  0  0  0  0  0  0  0  0  0
  -14.0741   14.9517   72.7991 C   0  0  0  0  0  0  0  0  0  0  0  0
   -4.0588   19.9375   66.3749 N   0  0  0  0  0  0  0  0  0  0  0  0
  1  2  2  0
  1  6  1  0
  1 11  1  0
  2  3  1  0
  3  4  1  0
  3  7  1  0
  4  9  2  0
  4  5  1  0
  5  6  1  0
  5  8  1  0
  6 10  2  0
  8 13  1  0
 11 12  3  0
 16 19  1  0
 19 25  2  0
 19 26  1  0
 17 27  1  0
 23 28  1  0
 13 20  2  0
 20 21  1  0
 21 22  2  0
 22 23  1  0
 23 24  2  0
 24 13  1  0
  7 18  2  0
 18 17  1  0
 17 16  2  0
 16 15  1  0
 15 14  2  0
 14  7  1  0
M  END

$$$$
No_344-gen_results_new/Mpro_initial_molecule_p3/2024-06-19-20-31-25/
     RDKit          3D

 28 30  0  0  0  0  0  0  0  0999 V2000
  -10.3383   15.1532   67.5971 C   0  0  0  0  0  0  0  0  0  0  0  0
  -10.7220   15.1619   68.8301 N   0  0  0  0  0  0  0  0  0  0  0  0
  -10.4044   16.2024   69.6852 N   0  0  0  0  0  0  0  0  0  0  0  0
   -9.7271   17.3221   69.2607 C   0  0  0  0  0  0  0  0  0  0  0  0
   -9.3095   17.3212   67.9557 N   0  0  0  0  0  0  0  0  0  0  0  0
   -9.5450   16.2958   67.0814 C   0  0  0  0  0  0  0  0  0  0  0  0
  -10.8644   16.0907   71.0374 C   0  0  0  0  0  0  0  0  0  0  0  0
   -8.5330   18.4792   67.4604 C   0  0  0  0  0  0  0  0  0  0  0  0
   -9.5433   18.2987   69.9938 O   0  0  0  0  0  0  0  0  0  0  0  0
   -9.1481   16.2876   65.9124 O   0  0  0  0  0  0  0  0  0  0  0  0
  -10.7304   14.0247   66.8209 C   0  0  0  0  0  0  0  0  0  0  0  0
  -11.1003   13.0895   66.2465 N   0  0  0  0  0  0  0  0  0  0  0  0
   -7.0275   18.2876   67.7219 C   0  0  0  0  0  0  0  0  0  0  0  0
  -10.0126   16.3511   72.1395 C   0  0  0  0  0  0  0  0  0  0  0  0
  -10.4883   16.2212   73.4591 C   0  0  0  0  0  0  0  0  0  0  0  0
  -11.8103   15.8022   73.6966 C   0  0  0  0  0  0  0  0  0  0  0  0
  -12.6594   15.5153   72.6113 C   0  0  0  0  0  0  0  0  0  0  0  0
  -12.1896   15.6561   71.2886 C   0  0  0  0  0  0  0  0  0  0  0  0
  -12.2484   15.6088   75.0145 O   0  0  0  0  0  0  0  0  0  0  0  0
   -6.4859   19.1438   67.9008 N   0  0  0  0  0  0  0  0  0  0  0  0
   -5.0872   19.0456   67.7885 C   0  0  0  0  0  0  0  0  0  0  0  0
   -4.2042   20.1676   68.0414 C   0  0  0  0  0  0  0  0  0  0  0  0
   -4.4926   18.0047   67.2633 N   0  0  0  0  0  0  0  0  0  0  0  0
   -2.8375   20.0485   67.7198 C   0  0  0  0  0  0  0  0  0  0  0  0
   -2.2793   18.9630   67.3581 C   0  0  0  0  0  0  0  0  0  0  0  0
   -3.0829   17.8232   67.0742 C   0  0  0  0  0  0  0  0  0  0  0  0
  -12.3391   16.7899   75.7233 C   0  0  0  0  0  0  0  0  0  0  0  0
   -6.8368   16.9409   67.7383 O   0  0  0  0  0  0  0  0  0  0  0  0
  1  2  2  0
  1  6  1  0
  1 11  1  0
  2  3  1  0
  3  4  1  0
  3  7  1  0
  4  9  2  0
  4  5  1  0
  5  6  1  0
  5  8  1  0
  6 10  2  0
  8 13  1  0
 11 12  3  0
 16 19  1  0
 13 20  1  0
 20 21  1  0
 19 27  1  0
 13 28  2  0
  7 18  2  0
 18 17  1  0
 17 16  2  0
 16 15  1  0
 15 14  2  0
 14  7  1  0
 21 22  2  0
 22 24  1  0
 24 25  2  0
 25 26  1  0
 26 23  2  0
 23 21  1  0
M  END

$$$$
No_345-gen_results_new/Mpro_initial_molecule_p3/2024-06-19-20-31-25/
     RDKit          3D

 28 30  0  0  0  0  0  0  0  0999 V2000
  -10.3383   15.1532   67.5971 C   0  0  0  0  0  0  0  0  0  0  0  0
  -10.7220   15.1619   68.8301 N   0  0  0  0  0  0  0  0  0  0  0  0
  -10.4044   16.2024   69.6852 N   0  0  0  0  0  0  0  0  0  0  0  0
   -9.7271   17.3221   69.2607 C   0  0  0  0  0  0  0  0  0  0  0  0
   -9.3095   17.3212   67.9557 N   0  0  0  0  0  0  0  0  0  0  0  0
   -9.5450   16.2958   67.0814 C   0  0  0  0  0  0  0  0  0  0  0  0
  -10.8644   16.0907   71.0374 C   0  0  0  0  0  0  0  0  0  0  0  0
   -8.5330   18.4792   67.4604 C   0  0  0  0  0  0  0  0  0  0  0  0
   -9.5433   18.2987   69.9938 O   0  0  0  0  0  0  0  0  0  0  0  0
   -9.1481   16.2876   65.9124 O   0  0  0  0  0  0  0  0  0  0  0  0
  -10.7304   14.0247   66.8209 C   0  0  0  0  0  0  0  0  0  0  0  0
  -11.1003   13.0895   66.2465 N   0  0  0  0  0  0  0  0  0  0  0  0
   -7.0275   18.2876   67.7219 C   0  0  0  0  0  0  0  0  0  0  0  0
  -10.0126   16.3511   72.1395 C   0  0  0  0  0  0  0  0  0  0  0  0
  -10.4883   16.2212   73.4591 C   0  0  0  0  0  0  0  0  0  0  0  0
  -11.8103   15.8022   73.6966 C   0  0  0  0  0  0  0  0  0  0  0  0
  -12.6594   15.5153   72.6113 C   0  0  0  0  0  0  0  0  0  0  0  0
  -12.1896   15.6561   71.2886 C   0  0  0  0  0  0  0  0  0  0  0  0
  -12.3486   15.5799   75.3255 Cl  0  0  0  0  0  0  0  0  0  0  0  0
   -6.5344   17.3734   68.3696 C   0  0  0  0  0  0  0  0  0  0  0  0
   -5.1249   17.1828   68.5820 C   0  0  0  0  0  0  0  0  0  0  0  0
   -4.4394   18.0509   67.8370 C   0  0  0  0  0  0  0  0  0  0  0  0
   -4.8688   19.0466   67.0682 C   0  0  0  0  0  0  0  0  0  0  0  0
   -6.2626   19.1636   66.9253 C   0  0  0  0  0  0  0  0  0  0  0  0
  -14.0261   14.9874   72.8037 N   0  0  0  0  0  0  0  0  0  0  0  0
   -4.0872   19.9292   66.3659 O   0  0  0  0  0  0  0  0  0  0  0  0
   -4.4655   21.1854   66.2198 C   0  0  0  0  0  0  0  0  0  0  0  0
   -4.2516   21.6197   64.7598 C   0  0  0  0  0  0  0  0  0  0  0  0
  1  2  2  0
  1  6  1  0
  1 11  1  0
  2  3  1  0
  3  4  1  0
  3  7  1  0
  4  9  2  0
  4  5  1  0
  5  6  1  0
  5  8  1  0
  6 10  2  0
  8 13  1  0
 11 12  3  0
 16 19  1  0
 17 25  1  0
 23 26  1  0
 26 27  1  0
 27 28  1  0
 13 20  2  0
 20 21  1  0
 21 22  2  0
 22 23  1  0
 23 24  2  0
 24 13  1  0
  7 18  2  0
 18 17  1  0
 17 16  2  0
 16 15  1  0
 15 14  2  0
 14  7  1  0
M  END

$$$$
No_346-gen_results_new/Mpro_initial_molecule_p3/2024-06-19-20-31-25/
     RDKit          3D

 28 30  0  0  0  0  0  0  0  0999 V2000
  -10.3383   15.1532   67.5971 C   0  0  0  0  0  0  0  0  0  0  0  0
  -10.7220   15.1619   68.8301 N   0  0  0  0  0  0  0  0  0  0  0  0
  -10.4044   16.2024   69.6852 N   0  0  0  0  0  0  0  0  0  0  0  0
   -9.7271   17.3221   69.2607 C   0  0  0  0  0  0  0  0  0  0  0  0
   -9.3095   17.3212   67.9557 N   0  0  0  0  0  0  0  0  0  0  0  0
   -9.5450   16.2958   67.0814 C   0  0  0  0  0  0  0  0  0  0  0  0
  -10.8644   16.0907   71.0374 C   0  0  0  0  0  0  0  0  0  0  0  0
   -8.5330   18.4792   67.4604 C   0  0  0  0  0  0  0  0  0  0  0  0
   -9.5433   18.2987   69.9938 O   0  0  0  0  0  0  0  0  0  0  0  0
   -9.1481   16.2876   65.9124 O   0  0  0  0  0  0  0  0  0  0  0  0
  -10.7304   14.0247   66.8209 C   0  0  0  0  0  0  0  0  0  0  0  0
  -11.1003   13.0895   66.2465 N   0  0  0  0  0  0  0  0  0  0  0  0
   -7.0275   18.2876   67.7219 C   0  0  0  0  0  0  0  0  0  0  0  0
  -10.0126   16.3511   72.1395 C   0  0  0  0  0  0  0  0  0  0  0  0
  -10.4883   16.2212   73.4591 C   0  0  0  0  0  0  0  0  0  0  0  0
  -11.8103   15.8022   73.6966 C   0  0  0  0  0  0  0  0  0  0  0  0
  -12.6594   15.5153   72.6113 C   0  0  0  0  0  0  0  0  0  0  0  0
  -12.1896   15.6561   71.2886 C   0  0  0  0  0  0  0  0  0  0  0  0
  -12.2768   15.6000   75.1088 C   0  0  0  0  0  0  0  0  0  0  0  0
   -6.5521   17.2992   68.1986 N   0  0  0  0  0  0  0  0  0  0  0  0
  -12.5813   16.5960   75.6947 O   0  0  0  0  0  0  0  0  0  0  0  0
   -6.3150   19.4220   67.2018 C   0  0  0  0  0  0  0  0  0  0  0  0
   -4.9057   19.2658   67.2041 C   0  0  0  0  0  0  0  0  0  0  0  0
   -4.3389   18.1113   67.8827 C   0  0  0  0  0  0  0  0  0  0  0  0
   -5.1672   17.0873   68.3942 C   0  0  0  0  0  0  0  0  0  0  0  0
  -12.1189   14.5204   75.5994 O   0  0  0  0  0  0  0  0  0  0  0  0
   -4.0068   20.2951   66.7688 C   0  0  0  0  0  0  0  0  0  0  0  0
   -3.9504   20.5657   65.4341 C   0  0  0  0  0  0  0  0  0  0  0  0
  1  2  2  0
  1  6  1  0
  1 11  1  0
  2  3  1  0
  3  4  1  0
  3  7  1  0
  4  9  2  0
  4  5  1  0
  5  6  1  0
  5  8  1  0
  6 10  2  0
  8 13  1  0
 11 12  3  0
 16 19  1  0
 19 21  2  0
 19 26  1  0
 23 27  1  0
 27 28  1  0
 13 20  2  0
 20 25  1  0
 25 24  2  0
 24 23  1  0
 23 22  2  0
 22 13  1  0
  7 18  2  0
 18 17  1  0
 17 16  2  0
 16 15  1  0
 15 14  2  0
 14  7  1  0
M  END

$$$$
No_347-gen_results_new/Mpro_initial_molecule_p3/2024-06-19-20-31-25/
     RDKit          3D

 26 28  0  0  0  0  0  0  0  0999 V2000
  -10.3383   15.1532   67.5971 C   0  0  0  0  0  0  0  0  0  0  0  0
  -10.7220   15.1619   68.8301 N   0  0  0  0  0  0  0  0  0  0  0  0
  -10.4044   16.2024   69.6852 N   0  0  0  0  0  0  0  0  0  0  0  0
   -9.7271   17.3221   69.2607 C   0  0  0  0  0  0  0  0  0  0  0  0
   -9.3095   17.3212   67.9557 N   0  0  0  0  0  0  0  0  0  0  0  0
   -9.5450   16.2958   67.0814 C   0  0  0  0  0  0  0  0  0  0  0  0
  -10.8644   16.0907   71.0374 C   0  0  0  0  0  0  0  0  0  0  0  0
   -8.5330   18.4792   67.4604 C   0  0  0  0  0  0  0  0  0  0  0  0
   -9.5433   18.2987   69.9938 O   0  0  0  0  0  0  0  0  0  0  0  0
   -9.1481   16.2876   65.9124 O   0  0  0  0  0  0  0  0  0  0  0  0
  -10.7304   14.0247   66.8209 C   0  0  0  0  0  0  0  0  0  0  0  0
  -11.1003   13.0895   66.2465 N   0  0  0  0  0  0  0  0  0  0  0  0
   -7.0275   18.2876   67.7219 C   0  0  0  0  0  0  0  0  0  0  0  0
  -10.0126   16.3511   72.1395 C   0  0  0  0  0  0  0  0  0  0  0  0
  -10.4883   16.2212   73.4591 C   0  0  0  0  0  0  0  0  0  0  0  0
  -11.8103   15.8022   73.6966 C   0  0  0  0  0  0  0  0  0  0  0  0
  -12.6594   15.5153   72.6113 C   0  0  0  0  0  0  0  0  0  0  0  0
  -12.1896   15.6561   71.2886 C   0  0  0  0  0  0  0  0  0  0  0  0
  -12.2768   15.6000   75.1088 C   0  0  0  0  0  0  0  0  0  0  0  0
   -6.3059   19.3590   66.9154 C   0  0  0  0  0  0  0  0  0  0  0  0
   -6.9578   20.4797   66.4322 C   0  0  0  0  0  0  0  0  0  0  0  0
   -8.3132   20.5656   66.3800 N   0  0  0  0  0  0  0  0  0  0  0  0
   -9.1319   19.5290   66.8374 C   0  0  0  0  0  0  0  0  0  0  0  0
  -11.4726   15.7234   75.8939 F   0  0  0  0  0  0  0  0  0  0  0  0
  -13.1944   16.5172   75.3389 F   0  0  0  0  0  0  0  0  0  0  0  0
  -12.9296   14.3659   75.0443 F   0  0  0  0  0  0  0  0  0  0  0  0
  1  2  2  0
  1  6  1  0
  1 11  1  0
  2  3  1  0
  3  4  1  0
  3  7  1  0
  4  9  2  0
  4  5  1  0
  5  6  1  0
  5  8  1  0
  6 10  2  0
 11 12  3  0
 16 19  1  0
 19 24  1  0
 19 25  1  0
 19 26  1  0
  8 13  2  0
 13 20  1  0
 20 21  2  0
 21 22  1  0
 22 23  2  0
 23  8  1  0
  7 18  2  0
 18 17  1  0
 17 16  2  0
 16 15  1  0
 15 14  2  0
 14  7  1  0
M  END

$$$$
No_348-gen_results_new/Mpro_initial_molecule_p3/2024-06-19-20-31-25/
     RDKit          3D

 28 30  0  0  0  0  0  0  0  0999 V2000
  -10.3383   15.1532   67.5971 C   0  0  0  0  0  0  0  0  0  0  0  0
  -10.7220   15.1619   68.8301 N   0  0  0  0  0  0  0  0  0  0  0  0
  -10.4044   16.2024   69.6852 N   0  0  0  0  0  0  0  0  0  0  0  0
   -9.7271   17.3221   69.2607 C   0  0  0  0  0  0  0  0  0  0  0  0
   -9.3095   17.3212   67.9557 N   0  0  0  0  0  0  0  0  0  0  0  0
   -9.5450   16.2958   67.0814 C   0  0  0  0  0  0  0  0  0  0  0  0
  -10.8644   16.0907   71.0374 C   0  0  0  0  0  0  0  0  0  0  0  0
   -8.5330   18.4792   67.4604 C   0  0  0  0  0  0  0  0  0  0  0  0
   -9.5433   18.2987   69.9938 O   0  0  0  0  0  0  0  0  0  0  0  0
   -9.1481   16.2876   65.9124 O   0  0  0  0  0  0  0  0  0  0  0  0
  -10.7304   14.0247   66.8209 C   0  0  0  0  0  0  0  0  0  0  0  0
  -11.1003   13.0895   66.2465 N   0  0  0  0  0  0  0  0  0  0  0  0
   -7.0275   18.2876   67.7219 C   0  0  0  0  0  0  0  0  0  0  0  0
  -10.0126   16.3511   72.1395 C   0  0  0  0  0  0  0  0  0  0  0  0
  -10.4883   16.2212   73.4591 C   0  0  0  0  0  0  0  0  0  0  0  0
  -11.8103   15.8022   73.6966 C   0  0  0  0  0  0  0  0  0  0  0  0
  -12.6594   15.5153   72.6113 C   0  0  0  0  0  0  0  0  0  0  0  0
  -12.1896   15.6561   71.2886 C   0  0  0  0  0  0  0  0  0  0  0  0
  -12.3377   15.5942   75.3311 S   0  0  0  0  0  0  0  0  0  0  0  0
  -11.4110   16.1123   76.0342 O   0  0  0  0  0  0  0  0  0  0  0  0
  -12.0668   13.9111   75.4868 N   0  0  0  0  0  0  0  0  0  0  0  0
   -6.3062   19.3659   66.9232 C   0  0  0  0  0  0  0  0  0  0  0  0
   -4.9689   19.4306   66.9646 C   0  0  0  0  0  0  0  0  0  0  0  0
   -4.2660   18.3275   67.6521 C   0  0  0  0  0  0  0  0  0  0  0  0
   -5.0404   17.2468   68.3021 C   0  0  0  0  0  0  0  0  0  0  0  0
   -6.4230   17.2294   68.1832 C   0  0  0  0  0  0  0  0  0  0  0  0
  -13.6570   15.9075   75.2921 O   0  0  0  0  0  0  0  0  0  0  0  0
   -4.1926   20.4209   66.3832 C   0  0  0  0  0  0  0  0  0  0  0  0
  1  2  2  0
  1  6  1  0
  1 11  1  0
  2  3  1  0
  3  4  1  0
  3  7  1  0
  4  9  2  0
  4  5  1  0
  5  6  1  0
  5  8  1  0
  6 10  2  0
  8 13  1  0
 11 12  3  0
 16 19  1  0
 19 20  2  0
 19 21  1  0
 19 27  2  0
 23 28  1  0
 13 22  2  0
 22 23  1  0
 23 24  2  0
 24 25  1  0
 25 26  2  0
 26 13  1  0
  7 18  2  0
 18 17  1  0
 17 16  2  0
 16 15  1  0
 15 14  2  0
 14  7  1  0
M  END

$$$$
No_349-gen_results_new/Mpro_initial_molecule_p3/2024-06-19-20-31-25/
     RDKit          3D

 28 30  0  0  0  0  0  0  0  0999 V2000
  -10.3383   15.1532   67.5971 C   0  0  0  0  0  0  0  0  0  0  0  0
  -10.7220   15.1619   68.8301 N   0  0  0  0  0  0  0  0  0  0  0  0
  -10.4044   16.2024   69.6852 N   0  0  0  0  0  0  0  0  0  0  0  0
   -9.7271   17.3221   69.2607 C   0  0  0  0  0  0  0  0  0  0  0  0
   -9.3095   17.3212   67.9557 N   0  0  0  0  0  0  0  0  0  0  0  0
   -9.5450   16.2958   67.0814 C   0  0  0  0  0  0  0  0  0  0  0  0
  -10.8644   16.0907   71.0374 C   0  0  0  0  0  0  0  0  0  0  0  0
   -8.5330   18.4792   67.4604 C   0  0  0  0  0  0  0  0  0  0  0  0
   -9.5433   18.2987   69.9938 O   0  0  0  0  0  0  0  0  0  0  0  0
   -9.1481   16.2876   65.9124 O   0  0  0  0  0  0  0  0  0  0  0  0
  -10.7304   14.0247   66.8209 C   0  0  0  0  0  0  0  0  0  0  0  0
  -11.1003   13.0895   66.2465 N   0  0  0  0  0  0  0  0  0  0  0  0
   -7.0275   18.2876   67.7219 C   0  0  0  0  0  0  0  0  0  0  0  0
  -10.0126   16.3511   72.1395 C   0  0  0  0  0  0  0  0  0  0  0  0
  -10.4883   16.2212   73.4591 C   0  0  0  0  0  0  0  0  0  0  0  0
  -11.8103   15.8022   73.6966 C   0  0  0  0  0  0  0  0  0  0  0  0
  -12.6594   15.5153   72.6113 C   0  0  0  0  0  0  0  0  0  0  0  0
  -12.1896   15.6561   71.2886 C   0  0  0  0  0  0  0  0  0  0  0  0
  -12.3486   15.5799   75.3255 Cl  0  0  0  0  0  0  0  0  0  0  0  0
   -6.5558   17.2018   67.9045 O   0  0  0  0  0  0  0  0  0  0  0  0
   -6.4130   19.3147   68.0692 N   0  0  0  0  0  0  0  0  0  0  0  0
   -4.9879   19.3264   68.2155 C   0  0  0  0  0  0  0  0  0  0  0  0
   -4.6408   19.3966   69.5241 C   0  0  0  0  0  0  0  0  0  0  0  0
   -3.2272   19.5555   69.7555 N   0  0  0  0  0  0  0  0  0  0  0  0
   -2.4191   19.7547   68.7442 C   0  0  0  0  0  0  0  0  0  0  0  0
   -4.1283   19.5344   67.2109 C   0  0  0  0  0  0  0  0  0  0  0  0
   -2.7971   19.7531   67.4638 C   0  0  0  0  0  0  0  0  0  0  0  0
   -5.4774   19.2509   70.7705 C   0  0  0  0  0  0  0  0  0  0  0  0
  1  2  2  0
  1  6  1  0
  1 11  1  0
  2  3  1  0
  3  4  1  0
  3  7  1  0
  4  9  2  0
  4  5  1  0
  5  6  1  0
  5  8  1  0
  6 10  2  0
  8 13  1  0
 11 12  3  0
 16 19  1  0
 13 20  2  0
 13 21  1  0
 21 22  1  0
 23 28  1  0
 22 23  2  0
 23 24  1  0
 24 25  2  0
 25 27  1  0
 27 26  2  0
 26 22  1  0
  7 18  2  0
 18 17  1  0
 17 16  2  0
 16 15  1  0
 15 14  2  0
 14  7  1  0
M  END

$$$$
No_350-gen_results_new/Mpro_initial_molecule_p3/2024-06-19-20-31-25/
     RDKit          3D

 28 30  0  0  0  0  0  0  0  0999 V2000
  -10.3383   15.1532   67.5971 C   0  0  0  0  0  0  0  0  0  0  0  0
  -10.7220   15.1619   68.8301 N   0  0  0  0  0  0  0  0  0  0  0  0
  -10.4044   16.2024   69.6852 N   0  0  0  0  0  0  0  0  0  0  0  0
   -9.7271   17.3221   69.2607 C   0  0  0  0  0  0  0  0  0  0  0  0
   -9.3095   17.3212   67.9557 N   0  0  0  0  0  0  0  0  0  0  0  0
   -9.5450   16.2958   67.0814 C   0  0  0  0  0  0  0  0  0  0  0  0
  -10.8644   16.0907   71.0374 C   0  0  0  0  0  0  0  0  0  0  0  0
   -8.5330   18.4792   67.4604 C   0  0  0  0  0  0  0  0  0  0  0  0
   -9.5433   18.2987   69.9938 O   0  0  0  0  0  0  0  0  0  0  0  0
   -9.1481   16.2876   65.9124 O   0  0  0  0  0  0  0  0  0  0  0  0
  -10.7304   14.0247   66.8209 C   0  0  0  0  0  0  0  0  0  0  0  0
  -11.1003   13.0895   66.2465 N   0  0  0  0  0  0  0  0  0  0  0  0
   -7.0275   18.2876   67.7219 C   0  0  0  0  0  0  0  0  0  0  0  0
  -10.0126   16.3511   72.1395 C   0  0  0  0  0  0  0  0  0  0  0  0
  -10.4883   16.2212   73.4591 C   0  0  0  0  0  0  0  0  0  0  0  0
  -11.8103   15.8022   73.6966 C   0  0  0  0  0  0  0  0  0  0  0  0
  -12.6594   15.5153   72.6113 C   0  0  0  0  0  0  0  0  0  0  0  0
  -12.1896   15.6561   71.2886 C   0  0  0  0  0  0  0  0  0  0  0  0
  -12.3486   15.5799   75.3255 Cl  0  0  0  0  0  0  0  0  0  0  0  0
   -6.5344   17.3734   68.3696 C   0  0  0  0  0  0  0  0  0  0  0  0
   -5.1310   17.1884   68.5570 C   0  0  0  0  0  0  0  0  0  0  0  0
   -6.2282   19.1878   66.9085 C   0  0  0  0  0  0  0  0  0  0  0  0
   -4.8273   19.0031   67.0387 C   0  0  0  0  0  0  0  0  0  0  0  0
   -4.3061   18.0194   67.7979 C   0  0  0  0  0  0  0  0  0  0  0  0
  -14.1199   14.9541   72.8040 C   0  0  0  0  0  0  0  0  0  0  0  0
   -6.7632   20.1604   66.1391 F   0  0  0  0  0  0  0  0  0  0  0  0
   -4.5650   16.0743   69.4216 C   0  0  0  0  0  0  0  0  0  0  0  0
   -4.6537   14.7733   68.9899 C   0  0  0  0  0  0  0  0  0  0  0  0
  1  2  2  0
  1  6  1  0
  1 11  1  0
  2  3  1  0
  3  4  1  0
  3  7  1  0
  4  9  2  0
  4  5  1  0
  5  6  1  0
  5  8  1  0
  6 10  2  0
  8 13  1  0
 11 12  3  0
 16 19  1  0
 17 25  1  0
 22 26  1  0
 21 27  1  0
 27 28  1  0
 13 20  2  0
 20 21  1  0
 21 24  2  0
 24 23  1  0
 23 22  2  0
 22 13  1  0
  7 18  2  0
 18 17  1  0
 17 16  2  0
 16 15  1  0
 15 14  2  0
 14  7  1  0
M  END

$$$$
No_351-gen_results_new/Mpro_initial_molecule_p3/2024-06-19-20-31-25/
     RDKit          3D

 26 28  0  0  0  0  0  0  0  0999 V2000
  -10.3383   15.1532   67.5971 C   0  0  0  0  0  0  0  0  0  0  0  0
  -10.7220   15.1619   68.8301 N   0  0  0  0  0  0  0  0  0  0  0  0
  -10.4044   16.2024   69.6852 N   0  0  0  0  0  0  0  0  0  0  0  0
   -9.7271   17.3221   69.2607 C   0  0  0  0  0  0  0  0  0  0  0  0
   -9.3095   17.3212   67.9557 N   0  0  0  0  0  0  0  0  0  0  0  0
   -9.5450   16.2958   67.0814 C   0  0  0  0  0  0  0  0  0  0  0  0
  -10.8644   16.0907   71.0374 C   0  0  0  0  0  0  0  0  0  0  0  0
   -8.5330   18.4792   67.4604 C   0  0  0  0  0  0  0  0  0  0  0  0
   -9.5433   18.2987   69.9938 O   0  0  0  0  0  0  0  0  0  0  0  0
   -9.1481   16.2876   65.9124 O   0  0  0  0  0  0  0  0  0  0  0  0
  -10.7304   14.0247   66.8209 C   0  0  0  0  0  0  0  0  0  0  0  0
  -11.1003   13.0895   66.2465 N   0  0  0  0  0  0  0  0  0  0  0  0
   -7.0275   18.2876   67.7219 C   0  0  0  0  0  0  0  0  0  0  0  0
  -10.0126   16.3511   72.1395 C   0  0  0  0  0  0  0  0  0  0  0  0
  -10.4883   16.2212   73.4591 C   0  0  0  0  0  0  0  0  0  0  0  0
  -11.8103   15.8022   73.6966 C   0  0  0  0  0  0  0  0  0  0  0  0
  -12.6594   15.5153   72.6113 C   0  0  0  0  0  0  0  0  0  0  0  0
  -12.1896   15.6561   71.2886 C   0  0  0  0  0  0  0  0  0  0  0  0
  -12.2484   15.6088   75.0145 O   0  0  0  0  0  0  0  0  0  0  0  0
   -6.5521   17.2994   68.1987 N   0  0  0  0  0  0  0  0  0  0  0  0
   -6.2224   19.3607   67.2152 C   0  0  0  0  0  0  0  0  0  0  0  0
   -6.4828   20.1987   66.2391 C   0  0  0  0  0  0  0  0  0  0  0  0
   -7.9220   20.2389   65.8230 C   0  0  0  0  0  0  0  0  0  0  0  0
   -8.8759   19.2559   66.3322 C   0  0  0  0  0  0  0  0  0  0  0  0
   -5.7713   21.1429   65.7891 O   0  0  0  0  0  0  0  0  0  0  0  0
  -11.8812   16.5246   75.9080 C   0  0  0  0  0  0  0  0  0  0  0  0
  1  2  2  0
  1  6  1  0
  1 11  1  0
  2  3  1  0
  3  4  1  0
  3  7  1  0
  4  9  2  0
  4  5  1  0
  5  6  1  0
  5  8  1  0
  6 10  2  0
 11 12  3  0
 16 19  1  0
 13 20  1  0
 22 25  1  0
 19 26  1  0
  7 18  2  0
 18 17  1  0
 17 16  2  0
 16 15  1  0
 15 14  2  0
 14  7  1  0
  8 13  2  0
 13 21  1  0
 21 22  2  0
 22 23  1  0
 23 24  2  0
 24  8  1  0
M  END

$$$$
No_352-gen_results_new/Mpro_initial_molecule_p3/2024-06-19-20-31-25/
     RDKit          3D

 28 30  0  0  0  0  0  0  0  0999 V2000
  -10.3383   15.1532   67.5971 C   0  0  0  0  0  0  0  0  0  0  0  0
  -10.7220   15.1619   68.8301 N   0  0  0  0  0  0  0  0  0  0  0  0
  -10.4044   16.2024   69.6852 N   0  0  0  0  0  0  0  0  0  0  0  0
   -9.7271   17.3221   69.2607 C   0  0  0  0  0  0  0  0  0  0  0  0
   -9.3095   17.3212   67.9557 N   0  0  0  0  0  0  0  0  0  0  0  0
   -9.5450   16.2958   67.0814 C   0  0  0  0  0  0  0  0  0  0  0  0
  -10.8644   16.0907   71.0374 C   0  0  0  0  0  0  0  0  0  0  0  0
   -8.5330   18.4792   67.4604 C   0  0  0  0  0  0  0  0  0  0  0  0
   -9.5433   18.2987   69.9938 O   0  0  0  0  0  0  0  0  0  0  0  0
   -9.1481   16.2876   65.9124 O   0  0  0  0  0  0  0  0  0  0  0  0
  -10.7304   14.0247   66.8209 C   0  0  0  0  0  0  0  0  0  0  0  0
  -11.1003   13.0895   66.2465 N   0  0  0  0  0  0  0  0  0  0  0  0
   -7.0275   18.2876   67.7219 C   0  0  0  0  0  0  0  0  0  0  0  0
  -10.0126   16.3511   72.1395 C   0  0  0  0  0  0  0  0  0  0  0  0
  -10.4883   16.2212   73.4591 C   0  0  0  0  0  0  0  0  0  0  0  0
  -11.8103   15.8022   73.6966 C   0  0  0  0  0  0  0  0  0  0  0  0
  -12.6594   15.5153   72.6113 C   0  0  0  0  0  0  0  0  0  0  0  0
  -12.1896   15.6561   71.2886 C   0  0  0  0  0  0  0  0  0  0  0  0
  -12.2768   15.6000   75.1088 C   0  0  0  0  0  0  0  0  0  0  0  0
   -6.4522   19.3092   67.8826 C   0  0  0  0  0  0  0  0  0  0  0  0
  -12.3537   14.5923   75.5994 O   0  0  0  0  0  0  0  0  0  0  0  0
  -12.2286   16.6680   75.8386 O   0  0  0  0  0  0  0  0  0  0  0  0
   -6.4090   20.4100   67.0303 C   0  0  0  0  0  0  0  0  0  0  0  0
   -7.8078   20.6553   66.4947 C   0  0  0  0  0  0  0  0  0  0  0  0
   -8.8014   19.6947   66.6357 C   0  0  0  0  0  0  0  0  0  0  0  0
   -5.5717   21.3926   66.8408 O   0  0  0  0  0  0  0  0  0  0  0  0
  -13.9773   15.0095   72.8300 O   0  0  0  0  0  0  0  0  0  0  0  0
   -4.2175   21.0614   66.9930 C   0  0  0  0  0  0  0  0  0  0  0  0
  1  2  2  0
  1  6  1  0
  1 11  1  0
  2  3  1  0
  3  4  1  0
  3  7  1  0
  4  9  2  0
  4  5  1  0
  5  6  1  0
  5  8  1  0
  6 10  2  0
 11 12  3  0
 16 19  1  0
 19 21  2  0
 19 22  1  0
 23 26  1  0
 17 27  1  0
 26 28  1  0
  8 13  2  0
 13 20  1  0
 20 23  2  0
 23 24  1  0
 24 25  2  0
 25  8  1  0
  7 18  2  0
 18 17  1  0
 17 16  2  0
 16 15  1  0
 15 14  2  0
 14  7  1  0
M  END

$$$$
No_353-gen_results_new/Mpro_initial_molecule_p3/2024-06-19-20-31-25/
     RDKit          3D

 28 30  0  0  0  0  0  0  0  0999 V2000
  -10.3383   15.1532   67.5971 C   0  0  0  0  0  0  0  0  0  0  0  0
  -10.7220   15.1619   68.8301 N   0  0  0  0  0  0  0  0  0  0  0  0
  -10.4044   16.2024   69.6852 N   0  0  0  0  0  0  0  0  0  0  0  0
   -9.7271   17.3221   69.2607 C   0  0  0  0  0  0  0  0  0  0  0  0
   -9.3095   17.3212   67.9557 N   0  0  0  0  0  0  0  0  0  0  0  0
   -9.5450   16.2958   67.0814 C   0  0  0  0  0  0  0  0  0  0  0  0
  -10.8644   16.0907   71.0374 C   0  0  0  0  0  0  0  0  0  0  0  0
   -8.5330   18.4792   67.4604 C   0  0  0  0  0  0  0  0  0  0  0  0
   -9.5433   18.2987   69.9938 O   0  0  0  0  0  0  0  0  0  0  0  0
   -9.1481   16.2876   65.9124 O   0  0  0  0  0  0  0  0  0  0  0  0
  -10.7304   14.0247   66.8209 C   0  0  0  0  0  0  0  0  0  0  0  0
  -11.1003   13.0895   66.2465 N   0  0  0  0  0  0  0  0  0  0  0  0
   -7.0275   18.2876   67.7219 C   0  0  0  0  0  0  0  0  0  0  0  0
  -10.0126   16.3511   72.1395 C   0  0  0  0  0  0  0  0  0  0  0  0
  -10.4883   16.2212   73.4591 C   0  0  0  0  0  0  0  0  0  0  0  0
  -11.8103   15.8022   73.6966 C   0  0  0  0  0  0  0  0  0  0  0  0
  -12.6594   15.5153   72.6113 C   0  0  0  0  0  0  0  0  0  0  0  0
  -12.1896   15.6561   71.2886 C   0  0  0  0  0  0  0  0  0  0  0  0
  -12.2768   15.6000   75.1088 C   0  0  0  0  0  0  0  0  0  0  0  0
   -6.4522   19.3092   67.8826 C   0  0  0  0  0  0  0  0  0  0  0  0
  -12.3537   14.5923   75.5994 O   0  0  0  0  0  0  0  0  0  0  0  0
  -12.8117   16.6654   75.6562 O   0  0  0  0  0  0  0  0  0  0  0  0
   -4.9616   19.3660   67.8952 C   0  0  0  0  0  0  0  0  0  0  0  0
   -4.2444   20.6404   68.0469 C   0  0  0  0  0  0  0  0  0  0  0  0
   -2.7766   20.4501   67.8307 C   0  0  0  0  0  0  0  0  0  0  0  0
   -2.2912   19.1496   67.6632 N   0  0  0  0  0  0  0  0  0  0  0  0
   -4.2700   18.1657   67.5291 C   0  0  0  0  0  0  0  0  0  0  0  0
   -2.9081   18.1273   67.4555 C   0  0  0  0  0  0  0  0  0  0  0  0
  1  2  2  0
  1  6  1  0
  1 11  1  0
  2  3  1  0
  3  4  1  0
  3  7  1  0
  4  9  2  0
  4  5  1  0
  5  6  1  0
  5  8  1  0
  6 10  2  0
  8 13  1  0
 11 12  3  0
 16 19  1  0
 13 20  1  0
 19 21  2  0
 19 22  1  0
 20 23  1  0
 23 24  2  0
 24 25  1  0
 25 26  2  0
 26 28  1  0
 28 27  2  0
 27 23  1  0
  7 18  2  0
 18 17  1  0
 17 16  2  0
 16 15  1  0
 15 14  2  0
 14  7  1  0
M  END

$$$$
No_354-gen_results_new/Mpro_initial_molecule_p3/2024-06-19-20-31-25/
     RDKit          3D

 28 29  0  0  0  0  0  0  0  0999 V2000
  -10.3383   15.1532   67.5971 C   0  0  0  0  0  0  0  0  0  0  0  0
  -10.7220   15.1619   68.8301 N   0  0  0  0  0  0  0  0  0  0  0  0
  -10.4044   16.2024   69.6852 N   0  0  0  0  0  0  0  0  0  0  0  0
   -9.7271   17.3221   69.2607 C   0  0  0  0  0  0  0  0  0  0  0  0
   -9.3095   17.3212   67.9557 N   0  0  0  0  0  0  0  0  0  0  0  0
   -9.5450   16.2958   67.0814 C   0  0  0  0  0  0  0  0  0  0  0  0
  -10.8644   16.0907   71.0374 C   0  0  0  0  0  0  0  0  0  0  0  0
   -8.5330   18.4792   67.4604 C   0  0  0  0  0  0  0  0  0  0  0  0
   -9.5433   18.2987   69.9938 O   0  0  0  0  0  0  0  0  0  0  0  0
   -9.1481   16.2876   65.9124 O   0  0  0  0  0  0  0  0  0  0  0  0
  -10.7304   14.0247   66.8209 C   0  0  0  0  0  0  0  0  0  0  0  0
  -11.1003   13.0895   66.2465 N   0  0  0  0  0  0  0  0  0  0  0  0
   -7.0275   18.2876   67.7219 C   0  0  0  0  0  0  0  0  0  0  0  0
  -10.0126   16.3511   72.1395 C   0  0  0  0  0  0  0  0  0  0  0  0
  -10.4883   16.2212   73.4591 C   0  0  0  0  0  0  0  0  0  0  0  0
  -11.8103   15.8022   73.6966 C   0  0  0  0  0  0  0  0  0  0  0  0
  -12.6594   15.5153   72.6113 C   0  0  0  0  0  0  0  0  0  0  0  0
  -12.1896   15.6561   71.2886 C   0  0  0  0  0  0  0  0  0  0  0  0
  -12.2484   15.6088   75.0145 O   0  0  0  0  0  0  0  0  0  0  0  0
   -6.3059   19.3591   66.9155 C   0  0  0  0  0  0  0  0  0  0  0  0
   -5.0333   19.3708   67.0017 N   0  0  0  0  0  0  0  0  0  0  0  0
   -6.8767   20.4376   66.5343 O   0  0  0  0  0  0  0  0  0  0  0  0
   -4.1521   20.3457   66.4110 C   0  0  0  0  0  0  0  0  0  0  0  0
   -3.7770   20.0606   65.1328 C   0  0  0  0  0  0  0  0  0  0  0  0
   -3.6345   18.9786   64.8822 F   0  0  0  0  0  0  0  0  0  0  0  0
   -4.8214   20.4942   64.3361 F   0  0  0  0  0  0  0  0  0  0  0  0
   -2.7700   20.8573   64.6688 F   0  0  0  0  0  0  0  0  0  0  0  0
  -11.8803   16.5232   75.9091 C   0  0  0  0  0  0  0  0  0  0  0  0
  1  2  2  0
  1  6  1  0
  1 11  1  0
  2  3  1  0
  3  4  1  0
  3  7  1  0
  4  9  2  0
  4  5  1  0
  5  6  1  0
  5  8  1  0
  6 10  2  0
  8 13  1  0
 11 12  3  0
 16 19  1  0
 13 20  1  0
 20 21  1  0
 20 22  2  0
 21 23  1  0
 23 24  1  0
 24 25  1  0
 24 26  1  0
 24 27  1  0
 19 28  1  0
  7 18  2  0
 18 17  1  0
 17 16  2  0
 16 15  1  0
 15 14  2  0
 14  7  1  0
M  END

$$$$
No_355-gen_results_new/Mpro_initial_molecule_p3/2024-06-19-20-31-25/
     RDKit          3D

 28 30  0  0  0  0  0  0  0  0999 V2000
  -10.3383   15.1532   67.5971 C   0  0  0  0  0  0  0  0  0  0  0  0
  -10.7220   15.1619   68.8301 N   0  0  0  0  0  0  0  0  0  0  0  0
  -10.4044   16.2024   69.6852 N   0  0  0  0  0  0  0  0  0  0  0  0
   -9.7271   17.3221   69.2607 C   0  0  0  0  0  0  0  0  0  0  0  0
   -9.3095   17.3212   67.9557 N   0  0  0  0  0  0  0  0  0  0  0  0
   -9.5450   16.2958   67.0814 C   0  0  0  0  0  0  0  0  0  0  0  0
  -10.8644   16.0907   71.0374 C   0  0  0  0  0  0  0  0  0  0  0  0
   -8.5330   18.4792   67.4604 C   0  0  0  0  0  0  0  0  0  0  0  0
   -9.5433   18.2987   69.9938 O   0  0  0  0  0  0  0  0  0  0  0  0
   -9.1481   16.2876   65.9124 O   0  0  0  0  0  0  0  0  0  0  0  0
  -10.7304   14.0247   66.8209 C   0  0  0  0  0  0  0  0  0  0  0  0
  -11.1003   13.0895   66.2465 N   0  0  0  0  0  0  0  0  0  0  0  0
   -7.0275   18.2876   67.7219 C   0  0  0  0  0  0  0  0  0  0  0  0
  -10.0126   16.3511   72.1395 C   0  0  0  0  0  0  0  0  0  0  0  0
  -10.4883   16.2212   73.4591 C   0  0  0  0  0  0  0  0  0  0  0  0
  -11.8103   15.8022   73.6966 C   0  0  0  0  0  0  0  0  0  0  0  0
  -12.6594   15.5153   72.6113 C   0  0  0  0  0  0  0  0  0  0  0  0
  -12.1896   15.6561   71.2886 C   0  0  0  0  0  0  0  0  0  0  0  0
  -12.3486   15.5799   75.3255 Cl  0  0  0  0  0  0  0  0  0  0  0  0
   -6.4523   19.3079   67.8835 C   0  0  0  0  0  0  0  0  0  0  0  0
   -6.2032   19.5449   69.0280 C   0  0  0  0  0  0  0  0  0  0  0  0
   -5.0283   20.3340   69.5330 C   0  0  0  0  0  0  0  0  0  0  0  0
   -4.1491   20.7182   68.5748 C   0  0  0  0  0  0  0  0  0  0  0  0
   -4.2143   20.2842   67.2305 C   0  0  0  0  0  0  0  0  0  0  0  0
   -5.3299   19.5322   66.8708 C   0  0  0  0  0  0  0  0  0  0  0  0
   -3.3767   20.7406   66.2519 O   0  0  0  0  0  0  0  0  0  0  0  0
   -3.5124   20.4046   64.9892 C   0  0  0  0  0  0  0  0  0  0  0  0
   -4.4357   19.7050   64.6414 O   0  0  0  0  0  0  0  0  0  0  0  0
  1  2  2  0
  1  6  1  0
  1 11  1  0
  2  3  1  0
  3  4  1  0
  3  7  1  0
  4  9  2  0
  4  5  1  0
  5  6  1  0
  5  8  1  0
  6 10  2  0
  8 13  1  0
 11 12  3  0
 16 19  1  0
 13 20  1  0
 24 26  1  0
 26 27  1  0
 27 28  1  0
 20 21  2  0
 21 22  1  0
 22 23  2  0
 23 24  1  0
 24 25  2  0
 25 20  1  0
  7 18  2  0
 18 17  1  0
 17 16  2  0
 16 15  1  0
 15 14  2  0
 14  7  1  0
M  END

$$$$
No_356-gen_results_new/Mpro_initial_molecule_p3/2024-06-19-20-31-25/
     RDKit          3D

 28 30  0  0  0  0  0  0  0  0999 V2000
  -10.3383   15.1532   67.5971 C   0  0  0  0  0  0  0  0  0  0  0  0
  -10.7220   15.1619   68.8301 N   0  0  0  0  0  0  0  0  0  0  0  0
  -10.4044   16.2024   69.6852 N   0  0  0  0  0  0  0  0  0  0  0  0
   -9.7271   17.3221   69.2607 C   0  0  0  0  0  0  0  0  0  0  0  0
   -9.3095   17.3212   67.9557 N   0  0  0  0  0  0  0  0  0  0  0  0
   -9.5450   16.2958   67.0814 C   0  0  0  0  0  0  0  0  0  0  0  0
  -10.8644   16.0907   71.0374 C   0  0  0  0  0  0  0  0  0  0  0  0
   -8.5330   18.4792   67.4604 C   0  0  0  0  0  0  0  0  0  0  0  0
   -9.5433   18.2987   69.9938 O   0  0  0  0  0  0  0  0  0  0  0  0
   -9.1481   16.2876   65.9124 O   0  0  0  0  0  0  0  0  0  0  0  0
  -10.7304   14.0247   66.8209 C   0  0  0  0  0  0  0  0  0  0  0  0
  -11.1003   13.0895   66.2465 N   0  0  0  0  0  0  0  0  0  0  0  0
   -7.0275   18.2876   67.7219 C   0  0  0  0  0  0  0  0  0  0  0  0
  -10.0126   16.3511   72.1395 C   0  0  0  0  0  0  0  0  0  0  0  0
  -10.4883   16.2212   73.4591 C   0  0  0  0  0  0  0  0  0  0  0  0
  -11.8103   15.8022   73.6966 C   0  0  0  0  0  0  0  0  0  0  0  0
  -12.6594   15.5153   72.6113 C   0  0  0  0  0  0  0  0  0  0  0  0
  -12.1896   15.6561   71.2886 C   0  0  0  0  0  0  0  0  0  0  0  0
  -12.2484   15.6088   75.0145 O   0  0  0  0  0  0  0  0  0  0  0  0
   -6.5341   17.3731   68.3686 C   0  0  0  0  0  0  0  0  0  0  0  0
   -5.1307   17.1884   68.5569 C   0  0  0  0  0  0  0  0  0  0  0  0
   -6.2283   19.1886   66.9090 C   0  0  0  0  0  0  0  0  0  0  0  0
   -6.6906   20.2582   66.0915 C   0  0  0  0  0  0  0  0  0  0  0  0
   -4.2962   18.0598   67.8350 C   0  0  0  0  0  0  0  0  0  0  0  0
   -4.8140   19.0396   67.0579 C   0  0  0  0  0  0  0  0  0  0  0  0
   -5.9177   20.8486   65.2785 N   0  0  0  0  0  0  0  0  0  0  0  0
   -8.0394   20.3444   65.8752 O   0  0  0  0  0  0  0  0  0  0  0  0
  -12.3371   16.7919   75.7213 C   0  0  0  0  0  0  0  0  0  0  0  0
  1  2  2  0
  1  6  1  0
  1 11  1  0
  2  3  1  0
  3  4  1  0
  3  7  1  0
  4  9  2  0
  4  5  1  0
  5  6  1  0
  5  8  1  0
  6 10  2  0
  8 13  1  0
 11 12  3  0
 16 19  1  0
 22 23  1  0
 23 26  1  0
 23 27  2  0
 19 28  1  0
  7 18  2  0
 18 17  1  0
 17 16  2  0
 16 15  1  0
 15 14  2  0
 14  7  1  0
 13 20  2  0
 20 21  1  0
 21 24  2  0
 24 25  1  0
 25 22  2  0
 22 13  1  0
M  END

$$$$
No_357-gen_results_new/Mpro_initial_molecule_p3/2024-06-19-20-31-25/
     RDKit          3D

 28 30  0  0  0  0  0  0  0  0999 V2000
  -10.3383   15.1532   67.5971 C   0  0  0  0  0  0  0  0  0  0  0  0
  -10.7220   15.1619   68.8301 N   0  0  0  0  0  0  0  0  0  0  0  0
  -10.4044   16.2024   69.6852 N   0  0  0  0  0  0  0  0  0  0  0  0
   -9.7271   17.3221   69.2607 C   0  0  0  0  0  0  0  0  0  0  0  0
   -9.3095   17.3212   67.9557 N   0  0  0  0  0  0  0  0  0  0  0  0
   -9.5450   16.2958   67.0814 C   0  0  0  0  0  0  0  0  0  0  0  0
  -10.8644   16.0907   71.0374 C   0  0  0  0  0  0  0  0  0  0  0  0
   -8.5330   18.4792   67.4604 C   0  0  0  0  0  0  0  0  0  0  0  0
   -9.5433   18.2987   69.9938 O   0  0  0  0  0  0  0  0  0  0  0  0
   -9.1481   16.2876   65.9124 O   0  0  0  0  0  0  0  0  0  0  0  0
  -10.7304   14.0247   66.8209 C   0  0  0  0  0  0  0  0  0  0  0  0
  -11.1003   13.0895   66.2465 N   0  0  0  0  0  0  0  0  0  0  0  0
   -7.0275   18.2876   67.7219 C   0  0  0  0  0  0  0  0  0  0  0  0
  -10.0126   16.3511   72.1395 C   0  0  0  0  0  0  0  0  0  0  0  0
  -10.4883   16.2212   73.4591 C   0  0  0  0  0  0  0  0  0  0  0  0
  -11.8103   15.8022   73.6966 C   0  0  0  0  0  0  0  0  0  0  0  0
  -12.6594   15.5153   72.6113 C   0  0  0  0  0  0  0  0  0  0  0  0
  -12.1896   15.6561   71.2886 C   0  0  0  0  0  0  0  0  0  0  0  0
  -12.3486   15.5799   75.3255 Cl  0  0  0  0  0  0  0  0  0  0  0  0
   -6.4523   19.3079   67.8835 C   0  0  0  0  0  0  0  0  0  0  0  0
   -6.2032   19.5449   69.0280 C   0  0  0  0  0  0  0  0  0  0  0  0
   -5.6841   18.3857   69.7844 C   0  0  0  0  0  0  0  0  0  0  0  0
   -6.2430   17.0342   69.3917 C   0  0  0  0  0  0  0  0  0  0  0  0
   -5.9299   15.8902   70.2329 C   0  0  0  0  0  0  0  0  0  0  0  0
   -6.8844   17.0377   68.3165 C   0  0  0  0  0  0  0  0  0  0  0  0
   -5.6148   15.9381   71.3885 O   0  0  0  0  0  0  0  0  0  0  0  0
   -6.3768   14.6112   69.7789 N   0  0  0  0  0  0  0  0  0  0  0  0
   -6.6075   20.6341   67.0963 C   0  0  0  0  0  0  0  0  0  0  0  0
  1  2  2  0
  1  6  1  0
  1 11  1  0
  2  3  1  0
  3  4  1  0
  3  7  1  0
  4  9  2  0
  4  5  1  0
  5  6  1  0
  5  8  1  0
  6 10  2  0
  8 13  1  0
 11 12  3  0
 16 19  1  0
 23 24  1  0
 24 26  2  0
 24 27  1  0
 20 28  1  0
 13 20  2  0
 20 21  1  0
 21 22  2  0
 22 23  1  0
 23 25  2  0
 25 13  1  0
  7 18  2  0
 18 17  1  0
 17 16  2  0
 16 15  1  0
 15 14  2  0
 14  7  1  0
M  END

$$$$
No_358-gen_results_new/Mpro_initial_molecule_p3/2024-06-19-20-31-25/
     RDKit          3D

 27 29  0  0  0  0  0  0  0  0999 V2000
  -10.3383   15.1532   67.5971 C   0  0  0  0  0  0  0  0  0  0  0  0
  -10.7220   15.1619   68.8301 N   0  0  0  0  0  0  0  0  0  0  0  0
  -10.4044   16.2024   69.6852 N   0  0  0  0  0  0  0  0  0  0  0  0
   -9.7271   17.3221   69.2607 C   0  0  0  0  0  0  0  0  0  0  0  0
   -9.3095   17.3212   67.9557 N   0  0  0  0  0  0  0  0  0  0  0  0
   -9.5450   16.2958   67.0814 C   0  0  0  0  0  0  0  0  0  0  0  0
  -10.8644   16.0907   71.0374 C   0  0  0  0  0  0  0  0  0  0  0  0
   -8.5330   18.4792   67.4604 C   0  0  0  0  0  0  0  0  0  0  0  0
   -9.5433   18.2987   69.9938 O   0  0  0  0  0  0  0  0  0  0  0  0
   -9.1481   16.2876   65.9124 O   0  0  0  0  0  0  0  0  0  0  0  0
  -10.7304   14.0247   66.8209 C   0  0  0  0  0  0  0  0  0  0  0  0
  -11.1003   13.0895   66.2465 N   0  0  0  0  0  0  0  0  0  0  0  0
   -7.0275   18.2876   67.7219 C   0  0  0  0  0  0  0  0  0  0  0  0
  -10.0126   16.3511   72.1395 C   0  0  0  0  0  0  0  0  0  0  0  0
  -10.4883   16.2212   73.4591 C   0  0  0  0  0  0  0  0  0  0  0  0
  -11.8103   15.8022   73.6966 C   0  0  0  0  0  0  0  0  0  0  0  0
  -12.6594   15.5153   72.6113 C   0  0  0  0  0  0  0  0  0  0  0  0
  -12.1896   15.6561   71.2886 C   0  0  0  0  0  0  0  0  0  0  0  0
  -12.3282   15.6698   75.1036 C   0  0  0  0  0  0  0  0  0  0  0  0
   -6.5339   17.3728   68.3682 C   0  0  0  0  0  0  0  0  0  0  0  0
   -5.1248   17.1826   68.5815 C   0  0  0  0  0  0  0  0  0  0  0  0
   -4.4393   18.0518   67.8377 C   0  0  0  0  0  0  0  0  0  0  0  0
   -4.8690   19.0480   67.0695 C   0  0  0  0  0  0  0  0  0  0  0  0
   -6.2628   19.1645   66.9262 C   0  0  0  0  0  0  0  0  0  0  0  0
  -12.4174   14.6913   75.6189 O   0  0  0  0  0  0  0  0  0  0  0  0
  -12.3338   16.8240   75.7957 N   0  0  0  0  0  0  0  0  0  0  0  0
   -6.6134   20.2880   66.0298 C   0  0  0  0  0  0  0  0  0  0  0  0
  1  2  2  0
  1  6  1  0
  1 11  1  0
  2  3  1  0
  3  4  1  0
  3  7  1  0
  4  9  2  0
  4  5  1  0
  5  6  1  0
  5  8  1  0
  6 10  2  0
  8 13  1  0
 11 12  3  0
 16 19  1  0
 19 25  2  0
 19 26  1  0
 24 27  1  0
 13 20  2  0
 20 21  1  0
 21 22  2  0
 22 23  1  0
 23 24  2  0
 24 13  1  0
  7 18  2  0
 18 17  1  0
 17 16  2  0
 16 15  1  0
 15 14  2  0
 14  7  1  0
M  END

$$$$
No_359-gen_results_new/Mpro_initial_molecule_p3/2024-06-19-20-31-25/
     RDKit          3D

 28 30  0  0  0  0  0  0  0  0999 V2000
  -10.3383   15.1532   67.5971 C   0  0  0  0  0  0  0  0  0  0  0  0
  -10.7220   15.1619   68.8301 N   0  0  0  0  0  0  0  0  0  0  0  0
  -10.4044   16.2024   69.6852 N   0  0  0  0  0  0  0  0  0  0  0  0
   -9.7271   17.3221   69.2607 C   0  0  0  0  0  0  0  0  0  0  0  0
   -9.3095   17.3212   67.9557 N   0  0  0  0  0  0  0  0  0  0  0  0
   -9.5450   16.2958   67.0814 C   0  0  0  0  0  0  0  0  0  0  0  0
  -10.8644   16.0907   71.0374 C   0  0  0  0  0  0  0  0  0  0  0  0
   -8.5330   18.4792   67.4604 C   0  0  0  0  0  0  0  0  0  0  0  0
   -9.5433   18.2987   69.9938 O   0  0  0  0  0  0  0  0  0  0  0  0
   -9.1481   16.2876   65.9124 O   0  0  0  0  0  0  0  0  0  0  0  0
  -10.7304   14.0247   66.8209 C   0  0  0  0  0  0  0  0  0  0  0  0
  -11.1003   13.0895   66.2465 N   0  0  0  0  0  0  0  0  0  0  0  0
   -7.0275   18.2876   67.7219 C   0  0  0  0  0  0  0  0  0  0  0  0
  -10.0126   16.3511   72.1395 C   0  0  0  0  0  0  0  0  0  0  0  0
  -10.4883   16.2212   73.4591 C   0  0  0  0  0  0  0  0  0  0  0  0
  -11.8103   15.8022   73.6966 C   0  0  0  0  0  0  0  0  0  0  0  0
  -12.6594   15.5153   72.6113 C   0  0  0  0  0  0  0  0  0  0  0  0
  -12.1896   15.6561   71.2886 C   0  0  0  0  0  0  0  0  0  0  0  0
  -12.2484   15.6097   75.0215 N   0  0  0  0  0  0  0  0  0  0  0  0
   -6.5556   17.2012   67.9034 O   0  0  0  0  0  0  0  0  0  0  0  0
   -6.4127   19.3143   68.0692 N   0  0  0  0  0  0  0  0  0  0  0  0
  -12.3345   16.7045   75.8042 C   0  0  0  0  0  0  0  0  0  0  0  0
   -5.0757   19.6810   68.2945 C   0  0  0  0  0  0  0  0  0  0  0  0
   -4.7656   19.6637   69.6568 C   0  0  0  0  0  0  0  0  0  0  0  0
   -3.3667   19.9483   69.9955 C   0  0  0  0  0  0  0  0  0  0  0  0
   -2.4932   20.3117   69.0458 C   0  0  0  0  0  0  0  0  0  0  0  0
   -2.8605   20.2770   67.6687 C   0  0  0  0  0  0  0  0  0  0  0  0
   -4.2045   20.0838   67.3533 C   0  0  0  0  0  0  0  0  0  0  0  0
  1  2  2  0
  1  6  1  0
  1 11  1  0
  2  3  1  0
  3  4  1  0
  3  7  1  0
  4  9  2  0
  4  5  1  0
  5  6  1  0
  5  8  1  0
  6 10  2  0
  8 13  1  0
 11 12  3  0
 16 19  1  0
 13 20  2  0
 13 21  1  0
 19 22  1  0
 21 23  1  0
 23 24  2  0
 24 25  1  0
 25 26  2  0
 26 27  1  0
 27 28  2  0
 28 23  1  0
  7 18  2  0
 18 17  1  0
 17 16  2  0
 16 15  1  0
 15 14  2  0
 14  7  1  0
M  END

$$$$
No_360-gen_results_new/Mpro_initial_molecule_p3/2024-06-19-20-31-25/
     RDKit          3D

 28 29  0  0  0  0  0  0  0  0999 V2000
  -10.3383   15.1532   67.5971 C   0  0  0  0  0  0  0  0  0  0  0  0
  -10.7220   15.1619   68.8301 N   0  0  0  0  0  0  0  0  0  0  0  0
  -10.4044   16.2024   69.6852 N   0  0  0  0  0  0  0  0  0  0  0  0
   -9.7271   17.3221   69.2607 C   0  0  0  0  0  0  0  0  0  0  0  0
   -9.3095   17.3212   67.9557 N   0  0  0  0  0  0  0  0  0  0  0  0
   -9.5450   16.2958   67.0814 C   0  0  0  0  0  0  0  0  0  0  0  0
  -10.8644   16.0907   71.0374 C   0  0  0  0  0  0  0  0  0  0  0  0
   -8.5330   18.4792   67.4604 C   0  0  0  0  0  0  0  0  0  0  0  0
   -9.5433   18.2987   69.9938 O   0  0  0  0  0  0  0  0  0  0  0  0
   -9.1481   16.2876   65.9124 O   0  0  0  0  0  0  0  0  0  0  0  0
  -10.7304   14.0247   66.8209 C   0  0  0  0  0  0  0  0  0  0  0  0
  -11.1003   13.0895   66.2465 N   0  0  0  0  0  0  0  0  0  0  0  0
   -7.0275   18.2876   67.7219 C   0  0  0  0  0  0  0  0  0  0  0  0
  -10.0126   16.3511   72.1395 C   0  0  0  0  0  0  0  0  0  0  0  0
  -10.4883   16.2212   73.4591 C   0  0  0  0  0  0  0  0  0  0  0  0
  -11.8103   15.8022   73.6966 C   0  0  0  0  0  0  0  0  0  0  0  0
  -12.6594   15.5153   72.6113 C   0  0  0  0  0  0  0  0  0  0  0  0
  -12.1896   15.6561   71.2886 C   0  0  0  0  0  0  0  0  0  0  0  0
  -12.2484   15.6088   75.0145 O   0  0  0  0  0  0  0  0  0  0  0  0
   -6.5557   17.2016   67.9039 O   0  0  0  0  0  0  0  0  0  0  0  0
   -6.3089   19.3657   67.4559 N   0  0  0  0  0  0  0  0  0  0  0  0
   -4.9194   19.4056   67.5523 C   0  0  0  0  0  0  0  0  0  0  0  0
   -4.3693   20.7084   67.2168 C   0  0  0  0  0  0  0  0  0  0  0  0
   -4.7498   21.2354   65.8644 C   0  0  0  0  0  0  0  0  0  0  0  0
   -4.2500   22.4103   65.7537 O   0  0  0  0  0  0  0  0  0  0  0  0
   -5.6591   20.7434   65.2084 O   0  0  0  0  0  0  0  0  0  0  0  0
  -12.3386   16.7912   75.7227 C   0  0  0  0  0  0  0  0  0  0  0  0
  -14.0712   14.8944   72.8103 C   0  0  0  0  0  0  0  0  0  0  0  0
  1  2  2  0
  1  6  1  0
  1 11  1  0
  2  3  1  0
  3  4  1  0
  3  7  1  0
  4  9  2  0
  4  5  1  0
  5  6  1  0
  5  8  1  0
  6 10  2  0
  8 13  1  0
 11 12  3  0
 16 19  1  0
 13 20  2  0
 13 21  1  0
 21 22  1  0
 22 23  1  0
 23 24  1  0
 24 25  2  0
 24 26  1  0
 19 27  1  0
 17 28  1  0
  7 18  2  0
 18 17  1  0
 17 16  2  0
 16 15  1  0
 15 14  2  0
 14  7  1  0
M  END

$$$$
No_361-gen_results_new/Mpro_initial_molecule_p3/2024-06-19-20-31-25/
     RDKit          3D

 27 29  0  0  0  0  0  0  0  0999 V2000
  -10.3383   15.1532   67.5971 C   0  0  0  0  0  0  0  0  0  0  0  0
  -10.7220   15.1619   68.8301 N   0  0  0  0  0  0  0  0  0  0  0  0
  -10.4044   16.2024   69.6852 N   0  0  0  0  0  0  0  0  0  0  0  0
   -9.7271   17.3221   69.2607 C   0  0  0  0  0  0  0  0  0  0  0  0
   -9.3095   17.3212   67.9557 N   0  0  0  0  0  0  0  0  0  0  0  0
   -9.5450   16.2958   67.0814 C   0  0  0  0  0  0  0  0  0  0  0  0
  -10.8644   16.0907   71.0374 C   0  0  0  0  0  0  0  0  0  0  0  0
   -8.5330   18.4792   67.4604 C   0  0  0  0  0  0  0  0  0  0  0  0
   -9.5433   18.2987   69.9938 O   0  0  0  0  0  0  0  0  0  0  0  0
   -9.1481   16.2876   65.9124 O   0  0  0  0  0  0  0  0  0  0  0  0
  -10.7304   14.0247   66.8209 C   0  0  0  0  0  0  0  0  0  0  0  0
  -11.1003   13.0895   66.2465 N   0  0  0  0  0  0  0  0  0  0  0  0
   -7.0275   18.2876   67.7219 C   0  0  0  0  0  0  0  0  0  0  0  0
  -10.0126   16.3511   72.1395 C   0  0  0  0  0  0  0  0  0  0  0  0
  -10.4883   16.2212   73.4591 C   0  0  0  0  0  0  0  0  0  0  0  0
  -11.8103   15.8022   73.6966 C   0  0  0  0  0  0  0  0  0  0  0  0
  -12.6594   15.5153   72.6113 C   0  0  0  0  0  0  0  0  0  0  0  0
  -12.1896   15.6561   71.2886 C   0  0  0  0  0  0  0  0  0  0  0  0
  -12.2768   15.6000   75.1088 C   0  0  0  0  0  0  0  0  0  0  0  0
   -6.3059   19.3590   66.9154 C   0  0  0  0  0  0  0  0  0  0  0  0
   -6.9497   20.4510   66.4564 C   0  0  0  0  0  0  0  0  0  0  0  0
   -8.3606   20.5427   66.3932 C   0  0  0  0  0  0  0  0  0  0  0  0
   -9.1769   19.4887   66.8453 C   0  0  0  0  0  0  0  0  0  0  0  0
  -12.3522   14.5932   75.6003 O   0  0  0  0  0  0  0  0  0  0  0  0
  -12.4557   16.7026   75.7578 O   0  0  0  0  0  0  0  0  0  0  0  0
   -6.1222   21.4623   65.9895 O   0  0  0  0  0  0  0  0  0  0  0  0
  -14.0819   14.9582   72.8188 C   0  0  0  0  0  0  0  0  0  0  0  0
  1  2  2  0
  1  6  1  0
  1 11  1  0
  2  3  1  0
  3  4  1  0
  3  7  1  0
  4  9  2  0
  4  5  1  0
  5  6  1  0
  5  8  1  0
  6 10  2  0
 11 12  3  0
 16 19  1  0
 19 24  2  0
 19 25  1  0
 21 26  1  0
 17 27  1  0
  8 13  2  0
 13 20  1  0
 20 21  2  0
 21 22  1  0
 22 23  2  0
 23  8  1  0
  7 18  2  0
 18 17  1  0
 17 16  2  0
 16 15  1  0
 15 14  2  0
 14  7  1  0
M  END

$$$$
No_362-gen_results_new/Mpro_initial_molecule_p3/2024-06-19-20-31-25/
     RDKit          3D

 28 30  0  0  0  0  0  0  0  0999 V2000
  -10.3383   15.1532   67.5971 C   0  0  0  0  0  0  0  0  0  0  0  0
  -10.7220   15.1619   68.8301 N   0  0  0  0  0  0  0  0  0  0  0  0
  -10.4044   16.2024   69.6852 N   0  0  0  0  0  0  0  0  0  0  0  0
   -9.7271   17.3221   69.2607 C   0  0  0  0  0  0  0  0  0  0  0  0
   -9.3095   17.3212   67.9557 N   0  0  0  0  0  0  0  0  0  0  0  0
   -9.5450   16.2958   67.0814 C   0  0  0  0  0  0  0  0  0  0  0  0
  -10.8644   16.0907   71.0374 C   0  0  0  0  0  0  0  0  0  0  0  0
   -8.5330   18.4792   67.4604 C   0  0  0  0  0  0  0  0  0  0  0  0
   -9.5433   18.2987   69.9938 O   0  0  0  0  0  0  0  0  0  0  0  0
   -9.1481   16.2876   65.9124 O   0  0  0  0  0  0  0  0  0  0  0  0
  -10.7304   14.0247   66.8209 C   0  0  0  0  0  0  0  0  0  0  0  0
  -11.1003   13.0895   66.2465 N   0  0  0  0  0  0  0  0  0  0  0  0
   -7.0275   18.2876   67.7219 C   0  0  0  0  0  0  0  0  0  0  0  0
  -10.0126   16.3511   72.1395 C   0  0  0  0  0  0  0  0  0  0  0  0
  -10.4883   16.2212   73.4591 C   0  0  0  0  0  0  0  0  0  0  0  0
  -11.8103   15.8022   73.6966 C   0  0  0  0  0  0  0  0  0  0  0  0
  -12.6594   15.5153   72.6113 C   0  0  0  0  0  0  0  0  0  0  0  0
  -12.1896   15.6561   71.2886 C   0  0  0  0  0  0  0  0  0  0  0  0
  -12.2768   15.6000   75.1088 C   0  0  0  0  0  0  0  0  0  0  0  0
   -6.3059   19.3590   66.9154 C   0  0  0  0  0  0  0  0  0  0  0  0
   -6.9578   20.4797   66.4322 C   0  0  0  0  0  0  0  0  0  0  0  0
   -8.3628   20.5494   66.3744 C   0  0  0  0  0  0  0  0  0  0  0  0
   -8.8672   21.5423   65.7895 F   0  0  0  0  0  0  0  0  0  0  0  0
   -9.1717   19.4172   66.8412 C   0  0  0  0  0  0  0  0  0  0  0  0
  -12.3544   14.5926   75.5993 O   0  0  0  0  0  0  0  0  0  0  0  0
  -12.4562   16.7014   75.7587 O   0  0  0  0  0  0  0  0  0  0  0  0
   -6.5418   17.2278   68.2365 F   0  0  0  0  0  0  0  0  0  0  0  0
   -6.1494   21.4769   66.0488 F   0  0  0  0  0  0  0  0  0  0  0  0
  1  2  2  0
  1  6  1  0
  1 11  1  0
  2  3  1  0
  3  4  1  0
  3  7  1  0
  4  9  2  0
  4  5  1  0
  5  6  1  0
  5  8  1  0
  6 10  2  0
 11 12  3  0
 16 19  1  0
 22 23  1  0
 19 25  2  0
 19 26  1  0
 13 27  1  0
 21 28  1  0
  8 13  2  0
 13 20  1  0
 20 21  2  0
 21 22  1  0
 22 24  2  0
 24  8  1  0
  7 18  2  0
 18 17  1  0
 17 16  2  0
 16 15  1  0
 15 14  2  0
 14  7  1  0
M  END

$$$$
No_363-gen_results_new/Mpro_initial_molecule_p3/2024-06-19-20-31-25/
     RDKit          3D

 28 30  0  0  0  0  0  0  0  0999 V2000
  -10.3383   15.1532   67.5971 C   0  0  0  0  0  0  0  0  0  0  0  0
  -10.7220   15.1619   68.8301 N   0  0  0  0  0  0  0  0  0  0  0  0
  -10.4044   16.2024   69.6852 N   0  0  0  0  0  0  0  0  0  0  0  0
   -9.7271   17.3221   69.2607 C   0  0  0  0  0  0  0  0  0  0  0  0
   -9.3095   17.3212   67.9557 N   0  0  0  0  0  0  0  0  0  0  0  0
   -9.5450   16.2958   67.0814 C   0  0  0  0  0  0  0  0  0  0  0  0
  -10.8644   16.0907   71.0374 C   0  0  0  0  0  0  0  0  0  0  0  0
   -8.5330   18.4792   67.4604 C   0  0  0  0  0  0  0  0  0  0  0  0
   -9.5433   18.2987   69.9938 O   0  0  0  0  0  0  0  0  0  0  0  0
   -9.1481   16.2876   65.9124 O   0  0  0  0  0  0  0  0  0  0  0  0
  -10.7304   14.0247   66.8209 C   0  0  0  0  0  0  0  0  0  0  0  0
  -11.1003   13.0895   66.2465 N   0  0  0  0  0  0  0  0  0  0  0  0
   -7.0275   18.2876   67.7219 C   0  0  0  0  0  0  0  0  0  0  0  0
  -10.0126   16.3511   72.1395 C   0  0  0  0  0  0  0  0  0  0  0  0
  -10.4883   16.2212   73.4591 C   0  0  0  0  0  0  0  0  0  0  0  0
  -11.8103   15.8022   73.6966 C   0  0  0  0  0  0  0  0  0  0  0  0
  -12.6594   15.5153   72.6113 C   0  0  0  0  0  0  0  0  0  0  0  0
  -12.1896   15.6561   71.2886 C   0  0  0  0  0  0  0  0  0  0  0  0
  -12.2484   15.6088   75.0145 O   0  0  0  0  0  0  0  0  0  0  0  0
   -6.5557   17.2016   67.9039 O   0  0  0  0  0  0  0  0  0  0  0  0
   -6.4129   19.3145   68.0693 N   0  0  0  0  0  0  0  0  0  0  0  0
  -11.8807   16.5255   75.9074 C   0  0  0  0  0  0  0  0  0  0  0  0
   -4.9880   19.3266   68.2189 C   0  0  0  0  0  0  0  0  0  0  0  0
   -4.6372   19.3940   69.5274 C   0  0  0  0  0  0  0  0  0  0  0  0
   -3.1839   19.5134   69.8133 C   0  0  0  0  0  0  0  0  0  0  0  0
   -2.3920   19.7188   68.7432 N   0  0  0  0  0  0  0  0  0  0  0  0
   -4.1084   19.5307   67.2122 C   0  0  0  0  0  0  0  0  0  0  0  0
   -2.7780   19.7201   67.5114 C   0  0  0  0  0  0  0  0  0  0  0  0
  1  2  2  0
  1  6  1  0
  1 11  1  0
  2  3  1  0
  3  4  1  0
  3  7  1  0
  4  9  2  0
  4  5  1  0
  5  6  1  0
  5  8  1  0
  6 10  2  0
  8 13  1  0
 11 12  3  0
 16 19  1  0
 13 20  2  0
 13 21  1  0
 19 22  1  0
 21 23  1  0
 23 24  2  0
 24 25  1  0
 25 26  2  0
 26 28  1  0
 28 27  2  0
 27 23  1  0
  7 18  2  0
 18 17  1  0
 17 16  2  0
 16 15  1  0
 15 14  2  0
 14  7  1  0
M  END

$$$$
No_364-gen_results_new/Mpro_initial_molecule_p3/2024-06-19-20-31-25/
     RDKit          3D

 28 30  0  0  0  0  0  0  0  0999 V2000
  -10.3383   15.1532   67.5971 C   0  0  0  0  0  0  0  0  0  0  0  0
  -10.7220   15.1619   68.8301 N   0  0  0  0  0  0  0  0  0  0  0  0
  -10.4044   16.2024   69.6852 N   0  0  0  0  0  0  0  0  0  0  0  0
   -9.7271   17.3221   69.2607 C   0  0  0  0  0  0  0  0  0  0  0  0
   -9.3095   17.3212   67.9557 N   0  0  0  0  0  0  0  0  0  0  0  0
   -9.5450   16.2958   67.0814 C   0  0  0  0  0  0  0  0  0  0  0  0
  -10.8644   16.0907   71.0374 C   0  0  0  0  0  0  0  0  0  0  0  0
   -8.5330   18.4792   67.4604 C   0  0  0  0  0  0  0  0  0  0  0  0
   -9.5433   18.2987   69.9938 O   0  0  0  0  0  0  0  0  0  0  0  0
   -9.1481   16.2876   65.9124 O   0  0  0  0  0  0  0  0  0  0  0  0
  -10.7304   14.0247   66.8209 C   0  0  0  0  0  0  0  0  0  0  0  0
  -11.1003   13.0895   66.2465 N   0  0  0  0  0  0  0  0  0  0  0  0
   -7.0275   18.2876   67.7219 C   0  0  0  0  0  0  0  0  0  0  0  0
  -10.0126   16.3511   72.1395 C   0  0  0  0  0  0  0  0  0  0  0  0
  -10.4883   16.2212   73.4591 C   0  0  0  0  0  0  0  0  0  0  0  0
  -11.8103   15.8022   73.6966 C   0  0  0  0  0  0  0  0  0  0  0  0
  -12.6594   15.5153   72.6113 C   0  0  0  0  0  0  0  0  0  0  0  0
  -12.1896   15.6561   71.2886 C   0  0  0  0  0  0  0  0  0  0  0  0
  -12.2484   15.6088   75.0145 O   0  0  0  0  0  0  0  0  0  0  0  0
   -6.4522   19.3083   67.8828 C   0  0  0  0  0  0  0  0  0  0  0  0
   -6.2559   20.3852   67.0148 C   0  0  0  0  0  0  0  0  0  0  0  0
   -7.6348   20.5655   66.3051 C   0  0  0  0  0  0  0  0  0  0  0  0
   -8.7557   19.5958   66.5583 C   0  0  0  0  0  0  0  0  0  0  0  0
   -5.4251   21.2899   66.7540 O   0  0  0  0  0  0  0  0  0  0  0  0
  -11.8812   16.5253   75.9080 C   0  0  0  0  0  0  0  0  0  0  0  0
  -14.0797   14.9008   72.8043 C   0  0  0  0  0  0  0  0  0  0  0  0
   -4.9164   21.4959   65.4827 C   0  0  0  0  0  0  0  0  0  0  0  0
   -3.7707   20.7143   65.2443 C   0  0  0  0  0  0  0  0  0  0  0  0
  1  2  2  0
  1  6  1  0
  1 11  1  0
  2  3  1  0
  3  4  1  0
  3  7  1  0
  4  9  2  0
  4  5  1  0
  5  6  1  0
  5  8  1  0
  6 10  2  0
 11 12  3  0
 16 19  1  0
 21 24  1  0
 19 25  1  0
 17 26  1  0
 24 27  1  0
 27 28  1  0
  8 13  2  0
 13 20  1  0
 20 21  2  0
 21 22  1  0
 22 23  2  0
 23  8  1  0
  7 18  2  0
 18 17  1  0
 17 16  2  0
 16 15  1  0
 15 14  2  0
 14  7  1  0
M  END

$$$$
No_365-gen_results_new/Mpro_initial_molecule_p3/2024-06-19-20-31-25/
     RDKit          3D

 28 30  0  0  0  0  0  0  0  0999 V2000
  -10.3383   15.1532   67.5971 C   0  0  0  0  0  0  0  0  0  0  0  0
  -10.7220   15.1619   68.8301 N   0  0  0  0  0  0  0  0  0  0  0  0
  -10.4044   16.2024   69.6852 N   0  0  0  0  0  0  0  0  0  0  0  0
   -9.7271   17.3221   69.2607 C   0  0  0  0  0  0  0  0  0  0  0  0
   -9.3095   17.3212   67.9557 N   0  0  0  0  0  0  0  0  0  0  0  0
   -9.5450   16.2958   67.0814 C   0  0  0  0  0  0  0  0  0  0  0  0
  -10.8644   16.0907   71.0374 C   0  0  0  0  0  0  0  0  0  0  0  0
   -8.5330   18.4792   67.4604 C   0  0  0  0  0  0  0  0  0  0  0  0
   -9.5433   18.2987   69.9938 O   0  0  0  0  0  0  0  0  0  0  0  0
   -9.1481   16.2876   65.9124 O   0  0  0  0  0  0  0  0  0  0  0  0
  -10.7304   14.0247   66.8209 C   0  0  0  0  0  0  0  0  0  0  0  0
  -11.1003   13.0895   66.2465 N   0  0  0  0  0  0  0  0  0  0  0  0
   -7.0275   18.2876   67.7219 C   0  0  0  0  0  0  0  0  0  0  0  0
  -10.0126   16.3511   72.1395 C   0  0  0  0  0  0  0  0  0  0  0  0
  -10.4883   16.2212   73.4591 C   0  0  0  0  0  0  0  0  0  0  0  0
  -11.8103   15.8022   73.6966 C   0  0  0  0  0  0  0  0  0  0  0  0
  -12.6594   15.5153   72.6113 C   0  0  0  0  0  0  0  0  0  0  0  0
  -12.1896   15.6561   71.2886 C   0  0  0  0  0  0  0  0  0  0  0  0
  -12.2484   15.6088   75.0145 O   0  0  0  0  0  0  0  0  0  0  0  0
   -6.3059   19.3591   66.9155 C   0  0  0  0  0  0  0  0  0  0  0  0
   -4.9923   19.4463   66.9703 C   0  0  0  0  0  0  0  0  0  0  0  0
   -4.2907   20.4330   66.2898 C   0  0  0  0  0  0  0  0  0  0  0  0
   -4.9709   21.5154   65.8584 C   0  0  0  0  0  0  0  0  0  0  0  0
   -6.3875   21.4522   65.7832 C   0  0  0  0  0  0  0  0  0  0  0  0
   -7.0587   20.4371   66.3781 C   0  0  0  0  0  0  0  0  0  0  0  0
   -4.2108   22.5415   65.2151 O   0  0  0  0  0  0  0  0  0  0  0  0
  -12.3386   16.7900   75.7237 C   0  0  0  0  0  0  0  0  0  0  0  0
  -14.3007   14.8145   72.8430 Cl  0  0  0  0  0  0  0  0  0  0  0  0
  1  2  2  0
  1  6  1  0
  1 11  1  0
  2  3  1  0
  3  4  1  0
  3  7  1  0
  4  9  2  0
  4  5  1  0
  5  6  1  0
  5  8  1  0
  6 10  2  0
  8 13  1  0
 11 12  3  0
 16 19  1  0
 13 20  1  0
 23 26  1  0
 19 27  1  0
 17 28  1  0
 20 21  2  0
 21 22  1  0
 22 23  2  0
 23 24  1  0
 24 25  2  0
 25 20  1  0
  7 18  2  0
 18 17  1  0
 17 16  2  0
 16 15  1  0
 15 14  2  0
 14  7  1  0
M  END

$$$$
No_366-gen_results_new/Mpro_initial_molecule_p3/2024-06-19-20-31-25/
     RDKit          3D

 28 30  0  0  0  0  0  0  0  0999 V2000
  -10.3383   15.1532   67.5971 C   0  0  0  0  0  0  0  0  0  0  0  0
  -10.7220   15.1619   68.8301 N   0  0  0  0  0  0  0  0  0  0  0  0
  -10.4044   16.2024   69.6852 N   0  0  0  0  0  0  0  0  0  0  0  0
   -9.7271   17.3221   69.2607 C   0  0  0  0  0  0  0  0  0  0  0  0
   -9.3095   17.3212   67.9557 N   0  0  0  0  0  0  0  0  0  0  0  0
   -9.5450   16.2958   67.0814 C   0  0  0  0  0  0  0  0  0  0  0  0
  -10.8644   16.0907   71.0374 C   0  0  0  0  0  0  0  0  0  0  0  0
   -8.5330   18.4792   67.4604 C   0  0  0  0  0  0  0  0  0  0  0  0
   -9.5433   18.2987   69.9938 O   0  0  0  0  0  0  0  0  0  0  0  0
   -9.1481   16.2876   65.9124 O   0  0  0  0  0  0  0  0  0  0  0  0
  -10.7304   14.0247   66.8209 C   0  0  0  0  0  0  0  0  0  0  0  0
  -11.1003   13.0895   66.2465 N   0  0  0  0  0  0  0  0  0  0  0  0
   -7.0275   18.2876   67.7219 C   0  0  0  0  0  0  0  0  0  0  0  0
  -10.0126   16.3511   72.1395 C   0  0  0  0  0  0  0  0  0  0  0  0
  -10.4883   16.2212   73.4591 C   0  0  0  0  0  0  0  0  0  0  0  0
  -11.8103   15.8022   73.6966 C   0  0  0  0  0  0  0  0  0  0  0  0
  -12.6594   15.5153   72.6113 C   0  0  0  0  0  0  0  0  0  0  0  0
  -12.1896   15.6561   71.2886 C   0  0  0  0  0  0  0  0  0  0  0  0
  -12.2484   15.6088   75.0145 O   0  0  0  0  0  0  0  0  0  0  0  0
   -6.5341   17.3731   68.3686 C   0  0  0  0  0  0  0  0  0  0  0  0
   -5.1307   17.1884   68.5569 C   0  0  0  0  0  0  0  0  0  0  0  0
   -6.2353   18.5839   66.5227 C   0  0  0  0  0  0  0  0  0  0  0  0
   -4.8739   18.3559   66.5018 C   0  0  0  0  0  0  0  0  0  0  0  0
   -4.3443   17.5536   67.4636 C   0  0  0  0  0  0  0  0  0  0  0  0
  -11.8769   16.5248   75.9058 C   0  0  0  0  0  0  0  0  0  0  0  0
  -14.3052   14.8143   72.8372 Cl  0  0  0  0  0  0  0  0  0  0  0  0
   -2.9801   17.2314   67.3801 O   0  0  0  0  0  0  0  0  0  0  0  0
   -2.5554   16.1637   67.4350 C   0  0  0  0  0  0  0  0  0  0  0  0
  1  2  2  0
  1  6  1  0
  1 11  1  0
  2  3  1  0
  3  4  1  0
  3  7  1  0
  4  9  2  0
  4  5  1  0
  5  6  1  0
  5  8  1  0
  6 10  2  0
  8 13  1  0
 11 12  3  0
 16 19  1  0
 19 25  1  0
 17 26  1  0
 24 27  1  0
 27 28  1  0
 13 20  2  0
 20 21  1  0
 21 24  2  0
 24 23  1  0
 23 22  2  0
 22 13  1  0
  7 18  2  0
 18 17  1  0
 17 16  2  0
 16 15  1  0
 15 14  2  0
 14  7  1  0
M  END

$$$$
No_367-gen_results_new/Mpro_initial_molecule_p3/2024-06-19-20-31-25/
     RDKit          3D

 25 27  0  0  0  0  0  0  0  0999 V2000
  -10.3383   15.1532   67.5971 C   0  0  0  0  0  0  0  0  0  0  0  0
  -10.7220   15.1619   68.8301 N   0  0  0  0  0  0  0  0  0  0  0  0
  -10.4044   16.2024   69.6852 N   0  0  0  0  0  0  0  0  0  0  0  0
   -9.7271   17.3221   69.2607 C   0  0  0  0  0  0  0  0  0  0  0  0
   -9.3095   17.3212   67.9557 N   0  0  0  0  0  0  0  0  0  0  0  0
   -9.5450   16.2958   67.0814 C   0  0  0  0  0  0  0  0  0  0  0  0
  -10.8644   16.0907   71.0374 C   0  0  0  0  0  0  0  0  0  0  0  0
   -8.5330   18.4792   67.4604 C   0  0  0  0  0  0  0  0  0  0  0  0
   -9.5433   18.2987   69.9938 O   0  0  0  0  0  0  0  0  0  0  0  0
   -9.1481   16.2876   65.9124 O   0  0  0  0  0  0  0  0  0  0  0  0
  -10.7304   14.0247   66.8209 C   0  0  0  0  0  0  0  0  0  0  0  0
  -11.1003   13.0895   66.2465 N   0  0  0  0  0  0  0  0  0  0  0  0
   -7.0275   18.2876   67.7219 C   0  0  0  0  0  0  0  0  0  0  0  0
  -10.0126   16.3511   72.1395 C   0  0  0  0  0  0  0  0  0  0  0  0
  -10.4883   16.2212   73.4591 C   0  0  0  0  0  0  0  0  0  0  0  0
  -11.8103   15.8022   73.6966 C   0  0  0  0  0  0  0  0  0  0  0  0
  -12.6594   15.5153   72.6113 C   0  0  0  0  0  0  0  0  0  0  0  0
  -12.1896   15.6561   71.2886 C   0  0  0  0  0  0  0  0  0  0  0  0
  -12.3486   15.5799   75.3255 Cl  0  0  0  0  0  0  0  0  0  0  0  0
   -6.3331   19.2809   66.8951 N   0  0  0  0  0  0  0  0  0  0  0  0
   -4.9893   19.0972   66.8661 C   0  0  0  0  0  0  0  0  0  0  0  0
   -4.4019   17.9765   67.5416 C   0  0  0  0  0  0  0  0  0  0  0  0
   -3.1522   17.7875   67.3013 F   0  0  0  0  0  0  0  0  0  0  0  0
   -5.2233   17.0035   68.1774 C   0  0  0  0  0  0  0  0  0  0  0  0
   -6.5945   17.1411   68.1132 C   0  0  0  0  0  0  0  0  0  0  0  0
  1  2  2  0
  1  6  1  0
  1 11  1  0
  2  3  1  0
  3  4  1  0
  3  7  1  0
  4  9  2  0
  4  5  1  0
  5  6  1  0
  5  8  1  0
  6 10  2  0
  8 13  1  0
 11 12  3  0
 16 19  1  0
 22 23  1  0
 13 20  2  0
 20 21  1  0
 21 22  2  0
 22 24  1  0
 24 25  2  0
 25 13  1  0
  7 18  2  0
 18 17  1  0
 17 16  2  0
 16 15  1  0
 15 14  2  0
 14  7  1  0
M  END

$$$$
No_368-gen_results_new/Mpro_initial_molecule_p3/2024-06-19-20-31-25/
     RDKit          3D

 28 30  0  0  0  0  0  0  0  0999 V2000
  -10.3383   15.1532   67.5971 C   0  0  0  0  0  0  0  0  0  0  0  0
  -10.7220   15.1619   68.8301 N   0  0  0  0  0  0  0  0  0  0  0  0
  -10.4044   16.2024   69.6852 N   0  0  0  0  0  0  0  0  0  0  0  0
   -9.7271   17.3221   69.2607 C   0  0  0  0  0  0  0  0  0  0  0  0
   -9.3095   17.3212   67.9557 N   0  0  0  0  0  0  0  0  0  0  0  0
   -9.5450   16.2958   67.0814 C   0  0  0  0  0  0  0  0  0  0  0  0
  -10.8644   16.0907   71.0374 C   0  0  0  0  0  0  0  0  0  0  0  0
   -8.5330   18.4792   67.4604 C   0  0  0  0  0  0  0  0  0  0  0  0
   -9.5433   18.2987   69.9938 O   0  0  0  0  0  0  0  0  0  0  0  0
   -9.1481   16.2876   65.9124 O   0  0  0  0  0  0  0  0  0  0  0  0
  -10.7304   14.0247   66.8209 C   0  0  0  0  0  0  0  0  0  0  0  0
  -11.1003   13.0895   66.2465 N   0  0  0  0  0  0  0  0  0  0  0  0
   -7.0275   18.2876   67.7219 C   0  0  0  0  0  0  0  0  0  0  0  0
  -10.0126   16.3511   72.1395 C   0  0  0  0  0  0  0  0  0  0  0  0
  -10.4883   16.2212   73.4591 C   0  0  0  0  0  0  0  0  0  0  0  0
  -11.8103   15.8022   73.6966 C   0  0  0  0  0  0  0  0  0  0  0  0
  -12.6594   15.5153   72.6113 C   0  0  0  0  0  0  0  0  0  0  0  0
  -12.1896   15.6561   71.2886 C   0  0  0  0  0  0  0  0  0  0  0  0
  -12.2484   15.6088   75.0145 O   0  0  0  0  0  0  0  0  0  0  0  0
   -6.5521   17.2994   68.1987 N   0  0  0  0  0  0  0  0  0  0  0  0
   -6.3635   19.4439   67.4938 C   0  0  0  0  0  0  0  0  0  0  0  0
   -4.9450   19.4669   67.5817 C   0  0  0  0  0  0  0  0  0  0  0  0
   -4.4002   18.3827   68.3266 C   0  0  0  0  0  0  0  0  0  0  0  0
   -5.1503   17.1774   68.5355 C   0  0  0  0  0  0  0  0  0  0  0  0
   -4.1446   20.6531   67.4098 C   0  0  0  0  0  0  0  0  0  0  0  0
   -4.5186   21.5622   66.8741 O   0  0  0  0  0  0  0  0  0  0  0  0
   -2.8732   20.6008   67.8252 N   0  0  0  0  0  0  0  0  0  0  0  0
  -11.8776   16.5254   75.9057 C   0  0  0  0  0  0  0  0  0  0  0  0
  1  2  2  0
  1  6  1  0
  1 11  1  0
  2  3  1  0
  3  4  1  0
  3  7  1  0
  4  9  2  0
  4  5  1  0
  5  6  1  0
  5  8  1  0
  6 10  2  0
  8 13  1  0
 11 12  3  0
 16 19  1  0
 22 25  1  0
 25 26  2  0
 25 27  1  0
 19 28  1  0
 13 20  2  0
 20 24  1  0
 24 23  2  0
 23 22  1  0
 22 21  2  0
 21 13  1  0
  7 18  2  0
 18 17  1  0
 17 16  2  0
 16 15  1  0
 15 14  2  0
 14  7  1  0
M  END

$$$$
No_369-gen_results_new/Mpro_initial_molecule_p3/2024-06-19-20-31-25/
     RDKit          3D

 28 30  0  0  0  0  0  0  0  0999 V2000
  -10.3383   15.1532   67.5971 C   0  0  0  0  0  0  0  0  0  0  0  0
  -10.7220   15.1619   68.8301 N   0  0  0  0  0  0  0  0  0  0  0  0
  -10.4044   16.2024   69.6852 N   0  0  0  0  0  0  0  0  0  0  0  0
   -9.7271   17.3221   69.2607 C   0  0  0  0  0  0  0  0  0  0  0  0
   -9.3095   17.3212   67.9557 N   0  0  0  0  0  0  0  0  0  0  0  0
   -9.5450   16.2958   67.0814 C   0  0  0  0  0  0  0  0  0  0  0  0
  -10.8644   16.0907   71.0374 C   0  0  0  0  0  0  0  0  0  0  0  0
   -8.5330   18.4792   67.4604 C   0  0  0  0  0  0  0  0  0  0  0  0
   -9.5433   18.2987   69.9938 O   0  0  0  0  0  0  0  0  0  0  0  0
   -9.1481   16.2876   65.9124 O   0  0  0  0  0  0  0  0  0  0  0  0
  -10.7304   14.0247   66.8209 C   0  0  0  0  0  0  0  0  0  0  0  0
  -11.1003   13.0895   66.2465 N   0  0  0  0  0  0  0  0  0  0  0  0
   -7.0275   18.2876   67.7219 C   0  0  0  0  0  0  0  0  0  0  0  0
  -10.0126   16.3511   72.1395 C   0  0  0  0  0  0  0  0  0  0  0  0
  -10.4883   16.2212   73.4591 C   0  0  0  0  0  0  0  0  0  0  0  0
  -11.8103   15.8022   73.6966 C   0  0  0  0  0  0  0  0  0  0  0  0
  -12.6594   15.5153   72.6113 C   0  0  0  0  0  0  0  0  0  0  0  0
  -12.1896   15.6561   71.2886 C   0  0  0  0  0  0  0  0  0  0  0  0
  -12.2768   15.6000   75.1088 C   0  0  0  0  0  0  0  0  0  0  0  0
   -6.5341   17.3729   68.3685 C   0  0  0  0  0  0  0  0  0  0  0  0
   -5.1308   17.1882   68.5568 C   0  0  0  0  0  0  0  0  0  0  0  0
   -6.2352   18.5841   66.5228 C   0  0  0  0  0  0  0  0  0  0  0  0
   -4.8738   18.3561   66.5020 C   0  0  0  0  0  0  0  0  0  0  0  0
   -4.3443   17.5536   67.4637 C   0  0  0  0  0  0  0  0  0  0  0  0
  -11.4723   15.7218   75.8923 F   0  0  0  0  0  0  0  0  0  0  0  0
  -13.1934   16.5177   75.3385 F   0  0  0  0  0  0  0  0  0  0  0  0
  -12.9304   14.3660   75.0432 F   0  0  0  0  0  0  0  0  0  0  0  0
   -2.9801   17.2315   67.3801 O   0  0  0  0  0  0  0  0  0  0  0  0
  1  2  2  0
  1  6  1  0
  1 11  1  0
  2  3  1  0
  3  4  1  0
  3  7  1  0
  4  9  2  0
  4  5  1  0
  5  6  1  0
  5  8  1  0
  6 10  2  0
  8 13  1  0
 11 12  3  0
 16 19  1  0
 19 25  1  0
 19 26  1  0
 19 27  1  0
 24 28  1  0
 13 20  2  0
 20 21  1  0
 21 24  2  0
 24 23  1  0
 23 22  2  0
 22 13  1  0
  7 18  2  0
 18 17  1  0
 17 16  2  0
 16 15  1  0
 15 14  2  0
 14  7  1  0
M  END

$$$$
No_370-gen_results_new/Mpro_initial_molecule_p3/2024-06-19-20-31-25/
     RDKit          3D

 26 28  0  0  0  0  0  0  0  0999 V2000
  -10.3383   15.1532   67.5971 C   0  0  0  0  0  0  0  0  0  0  0  0
  -10.7220   15.1619   68.8301 N   0  0  0  0  0  0  0  0  0  0  0  0
  -10.4044   16.2024   69.6852 N   0  0  0  0  0  0  0  0  0  0  0  0
   -9.7271   17.3221   69.2607 C   0  0  0  0  0  0  0  0  0  0  0  0
   -9.3095   17.3212   67.9557 N   0  0  0  0  0  0  0  0  0  0  0  0
   -9.5450   16.2958   67.0814 C   0  0  0  0  0  0  0  0  0  0  0  0
  -10.8644   16.0907   71.0374 C   0  0  0  0  0  0  0  0  0  0  0  0
   -8.5330   18.4792   67.4604 C   0  0  0  0  0  0  0  0  0  0  0  0
   -9.5433   18.2987   69.9938 O   0  0  0  0  0  0  0  0  0  0  0  0
   -9.1481   16.2876   65.9124 O   0  0  0  0  0  0  0  0  0  0  0  0
  -10.7304   14.0247   66.8209 C   0  0  0  0  0  0  0  0  0  0  0  0
  -11.1003   13.0895   66.2465 N   0  0  0  0  0  0  0  0  0  0  0  0
   -7.0275   18.2876   67.7219 C   0  0  0  0  0  0  0  0  0  0  0  0
  -10.0126   16.3511   72.1395 C   0  0  0  0  0  0  0  0  0  0  0  0
  -10.4883   16.2212   73.4591 C   0  0  0  0  0  0  0  0  0  0  0  0
  -11.8103   15.8022   73.6966 C   0  0  0  0  0  0  0  0  0  0  0  0
  -12.6594   15.5153   72.6113 C   0  0  0  0  0  0  0  0  0  0  0  0
  -12.1896   15.6561   71.2886 C   0  0  0  0  0  0  0  0  0  0  0  0
  -12.2484   15.6088   75.0145 O   0  0  0  0  0  0  0  0  0  0  0  0
   -6.3059   19.3591   66.9155 C   0  0  0  0  0  0  0  0  0  0  0  0
   -5.0333   19.3708   67.0017 N   0  0  0  0  0  0  0  0  0  0  0  0
   -6.8412   20.6362   66.4326 C   0  0  0  0  0  0  0  0  0  0  0  0
   -4.1870   20.2791   66.4323 C   0  0  0  0  0  0  0  0  0  0  0  0
  -11.8806   16.5239   75.9088 C   0  0  0  0  0  0  0  0  0  0  0  0
   -4.6300   21.3382   66.0557 C   0  0  0  0  0  0  0  0  0  0  0  0
   -6.0094   21.5303   65.9197 N   0  0  0  0  0  0  0  0  0  0  0  0
  1  2  2  0
  1  6  1  0
  1 11  1  0
  2  3  1  0
  3  4  1  0
  3  7  1  0
  4  9  2  0
  4  5  1  0
  5  6  1  0
  5  8  1  0
  6 10  2  0
  8 13  1  0
 11 12  3  0
 16 19  1  0
 13 20  1  0
 19 24  1  0
  7 18  2  0
 18 17  1  0
 17 16  2  0
 16 15  1  0
 15 14  2  0
 14  7  1  0
 20 21  2  0
 21 23  1  0
 23 25  2  0
 25 26  1  0
 26 22  2  0
 22 20  1  0
M  END

$$$$
No_371-gen_results_new/Mpro_initial_molecule_p3/2024-06-19-20-31-25/
     RDKit          3D

 28 30  0  0  0  0  0  0  0  0999 V2000
  -10.3383   15.1532   67.5971 C   0  0  0  0  0  0  0  0  0  0  0  0
  -10.7220   15.1619   68.8301 N   0  0  0  0  0  0  0  0  0  0  0  0
  -10.4044   16.2024   69.6852 N   0  0  0  0  0  0  0  0  0  0  0  0
   -9.7271   17.3221   69.2607 C   0  0  0  0  0  0  0  0  0  0  0  0
   -9.3095   17.3212   67.9557 N   0  0  0  0  0  0  0  0  0  0  0  0
   -9.5450   16.2958   67.0814 C   0  0  0  0  0  0  0  0  0  0  0  0
  -10.8644   16.0907   71.0374 C   0  0  0  0  0  0  0  0  0  0  0  0
   -8.5330   18.4792   67.4604 C   0  0  0  0  0  0  0  0  0  0  0  0
   -9.5433   18.2987   69.9938 O   0  0  0  0  0  0  0  0  0  0  0  0
   -9.1481   16.2876   65.9124 O   0  0  0  0  0  0  0  0  0  0  0  0
  -10.7304   14.0247   66.8209 C   0  0  0  0  0  0  0  0  0  0  0  0
  -11.1003   13.0895   66.2465 N   0  0  0  0  0  0  0  0  0  0  0  0
   -7.0275   18.2876   67.7219 C   0  0  0  0  0  0  0  0  0  0  0  0
  -10.0126   16.3511   72.1395 C   0  0  0  0  0  0  0  0  0  0  0  0
  -10.4883   16.2212   73.4591 C   0  0  0  0  0  0  0  0  0  0  0  0
  -11.8103   15.8022   73.6966 C   0  0  0  0  0  0  0  0  0  0  0  0
  -12.6594   15.5153   72.6113 C   0  0  0  0  0  0  0  0  0  0  0  0
  -12.1896   15.6561   71.2886 C   0  0  0  0  0  0  0  0  0  0  0  0
  -12.2484   15.6088   75.0145 O   0  0  0  0  0  0  0  0  0  0  0  0
   -6.5341   17.3731   68.3686 C   0  0  0  0  0  0  0  0  0  0  0  0
   -5.2023   17.6243   68.8089 C   0  0  0  0  0  0  0  0  0  0  0  0
   -4.3958   18.3714   68.1904 C   0  0  0  0  0  0  0  0  0  0  0  0
   -4.9307   19.3253   67.3291 C   0  0  0  0  0  0  0  0  0  0  0  0
   -6.2858   19.2676   67.0130 C   0  0  0  0  0  0  0  0  0  0  0  0
  -12.3373   16.7917   75.7212 C   0  0  0  0  0  0  0  0  0  0  0  0
   -7.0001   20.5312   66.0077 Cl  0  0  0  0  0  0  0  0  0  0  0  0
   -4.6414   16.4656   69.6088 O   0  0  0  0  0  0  0  0  0  0  0  0
   -5.1223   16.0005   70.6509 C   0  0  0  0  0  0  0  0  0  0  0  0
  1  2  2  0
  1  6  1  0
  1 11  1  0
  2  3  1  0
  3  4  1  0
  3  7  1  0
  4  9  2  0
  4  5  1  0
  5  6  1  0
  5  8  1  0
  6 10  2  0
  8 13  1  0
 11 12  3  0
 16 19  1  0
 19 25  1  0
 24 26  1  0
 21 27  1  0
 27 28  1  0
 13 20  2  0
 20 21  1  0
 21 22  2  0
 22 23  1  0
 23 24  2  0
 24 13  1  0
  7 18  2  0
 18 17  1  0
 17 16  2  0
 16 15  1  0
 15 14  2  0
 14  7  1  0
M  END

$$$$
No_372-gen_results_new/Mpro_initial_molecule_p3/2024-06-19-20-31-25/
     RDKit          3D

 28 30  0  0  0  0  0  0  0  0999 V2000
  -10.3383   15.1532   67.5971 C   0  0  0  0  0  0  0  0  0  0  0  0
  -10.7220   15.1619   68.8301 N   0  0  0  0  0  0  0  0  0  0  0  0
  -10.4044   16.2024   69.6852 N   0  0  0  0  0  0  0  0  0  0  0  0
   -9.7271   17.3221   69.2607 C   0  0  0  0  0  0  0  0  0  0  0  0
   -9.3095   17.3212   67.9557 N   0  0  0  0  0  0  0  0  0  0  0  0
   -9.5450   16.2958   67.0814 C   0  0  0  0  0  0  0  0  0  0  0  0
  -10.8644   16.0907   71.0374 C   0  0  0  0  0  0  0  0  0  0  0  0
   -8.5330   18.4792   67.4604 C   0  0  0  0  0  0  0  0  0  0  0  0
   -9.5433   18.2987   69.9938 O   0  0  0  0  0  0  0  0  0  0  0  0
   -9.1481   16.2876   65.9124 O   0  0  0  0  0  0  0  0  0  0  0  0
  -10.7304   14.0247   66.8209 C   0  0  0  0  0  0  0  0  0  0  0  0
  -11.1003   13.0895   66.2465 N   0  0  0  0  0  0  0  0  0  0  0  0
   -7.0275   18.2876   67.7219 C   0  0  0  0  0  0  0  0  0  0  0  0
  -10.0126   16.3511   72.1395 C   0  0  0  0  0  0  0  0  0  0  0  0
  -10.4883   16.2212   73.4591 C   0  0  0  0  0  0  0  0  0  0  0  0
  -11.8103   15.8022   73.6966 C   0  0  0  0  0  0  0  0  0  0  0  0
  -12.6594   15.5153   72.6113 C   0  0  0  0  0  0  0  0  0  0  0  0
  -12.1896   15.6561   71.2886 C   0  0  0  0  0  0  0  0  0  0  0  0
  -12.2484   15.6088   75.0145 O   0  0  0  0  0  0  0  0  0  0  0  0
   -6.3059   19.3591   66.9155 C   0  0  0  0  0  0  0  0  0  0  0  0
   -4.9923   19.4463   66.9703 C   0  0  0  0  0  0  0  0  0  0  0  0
   -4.2998   20.4653   66.3247 C   0  0  0  0  0  0  0  0  0  0  0  0
   -5.0064   21.5282   65.8705 C   0  0  0  0  0  0  0  0  0  0  0  0
   -6.4418   21.4423   65.7724 C   0  0  0  0  0  0  0  0  0  0  0  0
   -7.0882   20.3569   66.2770 C   0  0  0  0  0  0  0  0  0  0  0  0
   -4.0896   22.8207   65.0628 Cl  0  0  0  0  0  0  0  0  0  0  0  0
  -11.8808   16.5236   75.9090 C   0  0  0  0  0  0  0  0  0  0  0  0
   -6.5660   17.2881   68.3059 O   0  0  0  0  0  0  0  0  0  0  0  0
  1  2  2  0
  1  6  1  0
  1 11  1  0
  2  3  1  0
  3  4  1  0
  3  7  1  0
  4  9  2  0
  4  5  1  0
  5  6  1  0
  5  8  1  0
  6 10  2  0
  8 13  1  0
 11 12  3  0
 16 19  1  0
 13 20  1  0
 23 26  1  0
 19 27  1  0
 13 28  2  0
 20 21  2  0
 21 22  1  0
 22 23  2  0
 23 24  1  0
 24 25  2  0
 25 20  1  0
  7 18  2  0
 18 17  1  0
 17 16  2  0
 16 15  1  0
 15 14  2  0
 14  7  1  0
M  END

$$$$
No_373-gen_results_new/Mpro_initial_molecule_p3/2024-06-19-20-31-25/
     RDKit          3D

 28 30  0  0  0  0  0  0  0  0999 V2000
  -10.3383   15.1532   67.5971 C   0  0  0  0  0  0  0  0  0  0  0  0
  -10.7220   15.1619   68.8301 N   0  0  0  0  0  0  0  0  0  0  0  0
  -10.4044   16.2024   69.6852 N   0  0  0  0  0  0  0  0  0  0  0  0
   -9.7271   17.3221   69.2607 C   0  0  0  0  0  0  0  0  0  0  0  0
   -9.3095   17.3212   67.9557 N   0  0  0  0  0  0  0  0  0  0  0  0
   -9.5450   16.2958   67.0814 C   0  0  0  0  0  0  0  0  0  0  0  0
  -10.8644   16.0907   71.0374 C   0  0  0  0  0  0  0  0  0  0  0  0
   -8.5330   18.4792   67.4604 C   0  0  0  0  0  0  0  0  0  0  0  0
   -9.5433   18.2987   69.9938 O   0  0  0  0  0  0  0  0  0  0  0  0
   -9.1481   16.2876   65.9124 O   0  0  0  0  0  0  0  0  0  0  0  0
  -10.7304   14.0247   66.8209 C   0  0  0  0  0  0  0  0  0  0  0  0
  -11.1003   13.0895   66.2465 N   0  0  0  0  0  0  0  0  0  0  0  0
   -7.0275   18.2876   67.7219 C   0  0  0  0  0  0  0  0  0  0  0  0
  -10.0126   16.3511   72.1395 C   0  0  0  0  0  0  0  0  0  0  0  0
  -10.4883   16.2212   73.4591 C   0  0  0  0  0  0  0  0  0  0  0  0
  -11.8103   15.8022   73.6966 C   0  0  0  0  0  0  0  0  0  0  0  0
  -12.6594   15.5153   72.6113 C   0  0  0  0  0  0  0  0  0  0  0  0
  -12.1896   15.6561   71.2886 C   0  0  0  0  0  0  0  0  0  0  0  0
  -12.2768   15.6000   75.1088 C   0  0  0  0  0  0  0  0  0  0  0  0
   -6.4522   19.3092   67.8826 C   0  0  0  0  0  0  0  0  0  0  0  0
  -12.5808   16.5955   75.6954 O   0  0  0  0  0  0  0  0  0  0  0  0
  -12.1193   14.5206   75.6006 O   0  0  0  0  0  0  0  0  0  0  0  0
   -6.0926   19.5186   69.0821 C   0  0  0  0  0  0  0  0  0  0  0  0
   -5.6304   18.3158   69.7861 C   0  0  0  0  0  0  0  0  0  0  0  0
   -6.2115   17.0342   69.4799 C   0  0  0  0  0  0  0  0  0  0  0  0
   -7.0241   17.0648   68.4112 C   0  0  0  0  0  0  0  0  0  0  0  0
   -6.9698   20.6289   67.2074 C   0  0  0  0  0  0  0  0  0  0  0  0
   -8.1653   20.6619   66.8432 F   0  0  0  0  0  0  0  0  0  0  0  0
  1  2  2  0
  1  6  1  0
  1 11  1  0
  2  3  1  0
  3  4  1  0
  3  7  1  0
  4  9  2  0
  4  5  1  0
  5  6  1  0
  5  8  1  0
  6 10  2  0
  8 13  1  0
 11 12  3  0
 16 19  1  0
 19 21  2  0
 19 22  1  0
 20 27  1  0
 27 28  1  0
 13 20  2  0
 20 23  1  0
 23 24  2  0
 24 25  1  0
 25 26  2  0
 26 13  1  0
  7 18  2  0
 18 17  1  0
 17 16  2  0
 16 15  1  0
 15 14  2  0
 14  7  1  0
M  END

$$$$
No_374-gen_results_new/Mpro_initial_molecule_p3/2024-06-19-20-31-25/
     RDKit          3D

 27 29  0  0  0  0  0  0  0  0999 V2000
  -10.3383   15.1532   67.5971 C   0  0  0  0  0  0  0  0  0  0  0  0
  -10.7220   15.1619   68.8301 N   0  0  0  0  0  0  0  0  0  0  0  0
  -10.4044   16.2024   69.6852 N   0  0  0  0  0  0  0  0  0  0  0  0
   -9.7271   17.3221   69.2607 C   0  0  0  0  0  0  0  0  0  0  0  0
   -9.3095   17.3212   67.9557 N   0  0  0  0  0  0  0  0  0  0  0  0
   -9.5450   16.2958   67.0814 C   0  0  0  0  0  0  0  0  0  0  0  0
  -10.8644   16.0907   71.0374 C   0  0  0  0  0  0  0  0  0  0  0  0
   -8.5330   18.4792   67.4604 C   0  0  0  0  0  0  0  0  0  0  0  0
   -9.5433   18.2987   69.9938 O   0  0  0  0  0  0  0  0  0  0  0  0
   -9.1481   16.2876   65.9124 O   0  0  0  0  0  0  0  0  0  0  0  0
  -10.7304   14.0247   66.8209 C   0  0  0  0  0  0  0  0  0  0  0  0
  -11.1003   13.0895   66.2465 N   0  0  0  0  0  0  0  0  0  0  0  0
   -7.0275   18.2876   67.7219 C   0  0  0  0  0  0  0  0  0  0  0  0
  -10.0126   16.3511   72.1395 C   0  0  0  0  0  0  0  0  0  0  0  0
  -10.4883   16.2212   73.4591 C   0  0  0  0  0  0  0  0  0  0  0  0
  -11.8103   15.8022   73.6966 C   0  0  0  0  0  0  0  0  0  0  0  0
  -12.6594   15.5153   72.6113 C   0  0  0  0  0  0  0  0  0  0  0  0
  -12.1896   15.6561   71.2886 C   0  0  0  0  0  0  0  0  0  0  0  0
  -12.3486   15.5799   75.3255 Cl  0  0  0  0  0  0  0  0  0  0  0  0
   -6.5344   17.3734   68.3696 C   0  0  0  0  0  0  0  0  0  0  0  0
   -5.2054   17.6254   68.8146 C   0  0  0  0  0  0  0  0  0  0  0  0
   -4.5985   16.7470   69.7167 C   0  0  0  0  0  0  0  0  0  0  0  0
   -5.2697   15.5949   70.2629 C   0  0  0  0  0  0  0  0  0  0  0  0
   -6.6662   15.3959   69.9309 C   0  0  0  0  0  0  0  0  0  0  0  0
   -7.2262   16.2779   68.9654 C   0  0  0  0  0  0  0  0  0  0  0  0
   -8.0118   15.7241   68.1644 O   0  0  0  0  0  0  0  0  0  0  0  0
   -7.8467   14.2457   67.7941 C   0  0  0  0  0  0  0  0  0  0  0  0
  1  2  2  0
  1  6  1  0
  1 11  1  0
  2  3  1  0
  3  4  1  0
  3  7  1  0
  4  9  2  0
  4  5  1  0
  5  6  1  0
  5  8  1  0
  6 10  2  0
  8 13  1  0
 11 12  3  0
 16 19  1  0
 13 20  1  0
 25 26  1  0
 26 27  1  0
 20 21  2  0
 21 22  1  0
 22 23  2  0
 23 24  1  0
 24 25  2  0
 25 20  1  0
  7 18  2  0
 18 17  1  0
 17 16  2  0
 16 15  1  0
 15 14  2  0
 14  7  1  0
M  END

$$$$
No_375-gen_results_new/Mpro_initial_molecule_p3/2024-06-19-20-31-25/
     RDKit          3D

 25 26  0  0  0  0  0  0  0  0999 V2000
  -10.3383   15.1532   67.5971 C   0  0  0  0  0  0  0  0  0  0  0  0
  -10.7220   15.1619   68.8301 N   0  0  0  0  0  0  0  0  0  0  0  0
  -10.4044   16.2024   69.6852 N   0  0  0  0  0  0  0  0  0  0  0  0
   -9.7271   17.3221   69.2607 C   0  0  0  0  0  0  0  0  0  0  0  0
   -9.3095   17.3212   67.9557 N   0  0  0  0  0  0  0  0  0  0  0  0
   -9.5450   16.2958   67.0814 C   0  0  0  0  0  0  0  0  0  0  0  0
  -10.8644   16.0907   71.0374 C   0  0  0  0  0  0  0  0  0  0  0  0
   -8.5330   18.4792   67.4604 C   0  0  0  0  0  0  0  0  0  0  0  0
   -9.5433   18.2987   69.9938 O   0  0  0  0  0  0  0  0  0  0  0  0
   -9.1481   16.2876   65.9124 O   0  0  0  0  0  0  0  0  0  0  0  0
  -10.7304   14.0247   66.8209 C   0  0  0  0  0  0  0  0  0  0  0  0
  -11.1003   13.0895   66.2465 N   0  0  0  0  0  0  0  0  0  0  0  0
   -7.0275   18.2876   67.7219 C   0  0  0  0  0  0  0  0  0  0  0  0
  -10.0126   16.3511   72.1395 C   0  0  0  0  0  0  0  0  0  0  0  0
  -10.4883   16.2212   73.4591 C   0  0  0  0  0  0  0  0  0  0  0  0
  -11.8103   15.8022   73.6966 C   0  0  0  0  0  0  0  0  0  0  0  0
  -12.6594   15.5153   72.6113 C   0  0  0  0  0  0  0  0  0  0  0  0
  -12.1896   15.6561   71.2886 C   0  0  0  0  0  0  0  0  0  0  0  0
  -12.3486   15.5799   75.3255 Cl  0  0  0  0  0  0  0  0  0  0  0  0
   -6.4523   19.3079   67.8835 C   0  0  0  0  0  0  0  0  0  0  0  0
   -6.2542   20.3848   67.0158 C   0  0  0  0  0  0  0  0  0  0  0  0
   -6.0942   20.2863   65.9022 N   0  0  0  0  0  0  0  0  0  0  0  0
   -5.1202   19.5940   65.3097 C   0  0  0  0  0  0  0  0  0  0  0  0
   -5.1334   19.2992   63.7957 C   0  0  0  0  0  0  0  0  0  0  0  0
   -4.1119   18.7107   65.9143 C   0  0  0  0  0  0  0  0  0  0  0  0
  1  2  2  0
  1  6  1  0
  1 11  1  0
  2  3  1  0
  3  4  1  0
  3  7  1  0
  4  9  2  0
  4  5  1  0
  5  6  1  0
  5  8  1  0
  6 10  2  0
  8 13  1  0
 11 12  3  0
 16 19  1  0
 13 20  1  0
 20 21  1  0
 21 22  1  0
 22 23  1  0
 23 24  1  0
 23 25  1  0
  7 18  2  0
 18 17  1  0
 17 16  2  0
 16 15  1  0
 15 14  2  0
 14  7  1  0
M  END

$$$$
No_376-gen_results_new/Mpro_initial_molecule_p3/2024-06-19-20-31-25/
     RDKit          3D

 28 30  0  0  0  0  0  0  0  0999 V2000
  -10.3383   15.1532   67.5971 C   0  0  0  0  0  0  0  0  0  0  0  0
  -10.7220   15.1619   68.8301 N   0  0  0  0  0  0  0  0  0  0  0  0
  -10.4044   16.2024   69.6852 N   0  0  0  0  0  0  0  0  0  0  0  0
   -9.7271   17.3221   69.2607 C   0  0  0  0  0  0  0  0  0  0  0  0
   -9.3095   17.3212   67.9557 N   0  0  0  0  0  0  0  0  0  0  0  0
   -9.5450   16.2958   67.0814 C   0  0  0  0  0  0  0  0  0  0  0  0
  -10.8644   16.0907   71.0374 C   0  0  0  0  0  0  0  0  0  0  0  0
   -8.5330   18.4792   67.4604 C   0  0  0  0  0  0  0  0  0  0  0  0
   -9.5433   18.2987   69.9938 O   0  0  0  0  0  0  0  0  0  0  0  0
   -9.1481   16.2876   65.9124 O   0  0  0  0  0  0  0  0  0  0  0  0
  -10.7304   14.0247   66.8209 C   0  0  0  0  0  0  0  0  0  0  0  0
  -11.1003   13.0895   66.2465 N   0  0  0  0  0  0  0  0  0  0  0  0
   -7.0275   18.2876   67.7219 C   0  0  0  0  0  0  0  0  0  0  0  0
  -10.0126   16.3511   72.1395 C   0  0  0  0  0  0  0  0  0  0  0  0
  -10.4883   16.2212   73.4591 C   0  0  0  0  0  0  0  0  0  0  0  0
  -11.8103   15.8022   73.6966 C   0  0  0  0  0  0  0  0  0  0  0  0
  -12.6594   15.5153   72.6113 C   0  0  0  0  0  0  0  0  0  0  0  0
  -12.1896   15.6561   71.2886 C   0  0  0  0  0  0  0  0  0  0  0  0
  -12.3486   15.5799   75.3255 Cl  0  0  0  0  0  0  0  0  0  0  0  0
   -6.3331   19.2809   66.8951 N   0  0  0  0  0  0  0  0  0  0  0  0
   -4.9893   19.0972   66.8661 C   0  0  0  0  0  0  0  0  0  0  0  0
   -4.2346   20.0292   66.0213 C   0  0  0  0  0  0  0  0  0  0  0  0
   -4.9429   21.1295   65.6415 N   0  0  0  0  0  0  0  0  0  0  0  0
   -4.1094   22.0784   64.9799 C   0  0  0  0  0  0  0  0  0  0  0  0
   -2.8967   20.0258   66.2727 C   0  0  0  0  0  0  0  0  0  0  0  0
   -2.8257   22.1679   65.1938 C   0  0  0  0  0  0  0  0  0  0  0  0
   -2.1524   21.0776   65.6552 C   0  0  0  0  0  0  0  0  0  0  0  0
   -4.4387   18.0571   67.1228 O   0  0  0  0  0  0  0  0  0  0  0  0
  1  2  2  0
  1  6  1  0
  1 11  1  0
  2  3  1  0
  3  4  1  0
  3  7  1  0
  4  9  2  0
  4  5  1  0
  5  6  1  0
  5  8  1  0
  6 10  2  0
  8 13  1  0
 11 12  3  0
 16 19  1  0
 13 20  1  0
 20 21  1  0
 21 22  1  0
 21 28  2  0
 22 23  2  0
 23 24  1  0
 24 26  2  0
 26 27  1  0
 27 25  2  0
 25 22  1  0
  7 18  2  0
 18 17  1  0
 17 16  2  0
 16 15  1  0
 15 14  2  0
 14  7  1  0
M  END

$$$$
No_377-gen_results_new/Mpro_initial_molecule_p3/2024-06-19-20-31-25/
     RDKit          3D

 28 30  0  0  0  0  0  0  0  0999 V2000
  -10.3383   15.1532   67.5971 C   0  0  0  0  0  0  0  0  0  0  0  0
  -10.7220   15.1619   68.8301 N   0  0  0  0  0  0  0  0  0  0  0  0
  -10.4044   16.2024   69.6852 N   0  0  0  0  0  0  0  0  0  0  0  0
   -9.7271   17.3221   69.2607 C   0  0  0  0  0  0  0  0  0  0  0  0
   -9.3095   17.3212   67.9557 N   0  0  0  0  0  0  0  0  0  0  0  0
   -9.5450   16.2958   67.0814 C   0  0  0  0  0  0  0  0  0  0  0  0
  -10.8644   16.0907   71.0374 C   0  0  0  0  0  0  0  0  0  0  0  0
   -8.5330   18.4792   67.4604 C   0  0  0  0  0  0  0  0  0  0  0  0
   -9.5433   18.2987   69.9938 O   0  0  0  0  0  0  0  0  0  0  0  0
   -9.1481   16.2876   65.9124 O   0  0  0  0  0  0  0  0  0  0  0  0
  -10.7304   14.0247   66.8209 C   0  0  0  0  0  0  0  0  0  0  0  0
  -11.1003   13.0895   66.2465 N   0  0  0  0  0  0  0  0  0  0  0  0
   -7.0275   18.2876   67.7219 C   0  0  0  0  0  0  0  0  0  0  0  0
  -10.0126   16.3511   72.1395 C   0  0  0  0  0  0  0  0  0  0  0  0
  -10.4883   16.2212   73.4591 C   0  0  0  0  0  0  0  0  0  0  0  0
  -11.8103   15.8022   73.6966 C   0  0  0  0  0  0  0  0  0  0  0  0
  -12.6594   15.5153   72.6113 C   0  0  0  0  0  0  0  0  0  0  0  0
  -12.1896   15.6561   71.2886 C   0  0  0  0  0  0  0  0  0  0  0  0
  -12.3486   15.5799   75.3255 Cl  0  0  0  0  0  0  0  0  0  0  0  0
   -6.4523   19.3079   67.8835 C   0  0  0  0  0  0  0  0  0  0  0  0
   -6.2032   19.5449   69.0280 C   0  0  0  0  0  0  0  0  0  0  0  0
   -5.0283   20.3340   69.5330 C   0  0  0  0  0  0  0  0  0  0  0  0
   -4.1491   20.7182   68.5748 C   0  0  0  0  0  0  0  0  0  0  0  0
   -4.2143   20.2842   67.2305 C   0  0  0  0  0  0  0  0  0  0  0  0
   -3.3711   20.7437   66.2406 C   0  0  0  0  0  0  0  0  0  0  0  0
   -5.4102   19.6058   66.8328 C   0  0  0  0  0  0  0  0  0  0  0  0
   -3.9022   21.8231   65.3520 C   0  0  0  0  0  0  0  0  0  0  0  0
   -2.9828   22.3918   64.3643 C   0  0  0  0  0  0  0  0  0  0  0  0
  1  2  2  0
  1  6  1  0
  1 11  1  0
  2  3  1  0
  3  4  1  0
  3  7  1  0
  4  9  2  0
  4  5  1  0
  5  6  1  0
  5  8  1  0
  6 10  2  0
  8 13  1  0
 11 12  3  0
 16 19  1  0
 13 20  1  0
 24 25  1  0
 25 27  1  0
 27 28  2  0
  7 18  2  0
 18 17  1  0
 17 16  2  0
 16 15  1  0
 15 14  2  0
 14  7  1  0
 20 21  2  0
 21 22  1  0
 22 23  2  0
 23 24  1  0
 24 26  2  0
 26 20  1  0
M  END

$$$$
No_378-gen_results_new/Mpro_initial_molecule_p3/2024-06-19-20-31-25/
     RDKit          3D

 28 30  0  0  0  0  0  0  0  0999 V2000
  -10.3383   15.1532   67.5971 C   0  0  0  0  0  0  0  0  0  0  0  0
  -10.7220   15.1619   68.8301 N   0  0  0  0  0  0  0  0  0  0  0  0
  -10.4044   16.2024   69.6852 N   0  0  0  0  0  0  0  0  0  0  0  0
   -9.7271   17.3221   69.2607 C   0  0  0  0  0  0  0  0  0  0  0  0
   -9.3095   17.3212   67.9557 N   0  0  0  0  0  0  0  0  0  0  0  0
   -9.5450   16.2958   67.0814 C   0  0  0  0  0  0  0  0  0  0  0  0
  -10.8644   16.0907   71.0374 C   0  0  0  0  0  0  0  0  0  0  0  0
   -8.5330   18.4792   67.4604 C   0  0  0  0  0  0  0  0  0  0  0  0
   -9.5433   18.2987   69.9938 O   0  0  0  0  0  0  0  0  0  0  0  0
   -9.1481   16.2876   65.9124 O   0  0  0  0  0  0  0  0  0  0  0  0
  -10.7304   14.0247   66.8209 C   0  0  0  0  0  0  0  0  0  0  0  0
  -11.1003   13.0895   66.2465 N   0  0  0  0  0  0  0  0  0  0  0  0
   -7.0275   18.2876   67.7219 C   0  0  0  0  0  0  0  0  0  0  0  0
  -10.0126   16.3511   72.1395 C   0  0  0  0  0  0  0  0  0  0  0  0
  -10.4883   16.2212   73.4591 C   0  0  0  0  0  0  0  0  0  0  0  0
  -11.8103   15.8022   73.6966 C   0  0  0  0  0  0  0  0  0  0  0  0
  -12.6594   15.5153   72.6113 C   0  0  0  0  0  0  0  0  0  0  0  0
  -12.1896   15.6561   71.2886 C   0  0  0  0  0  0  0  0  0  0  0  0
  -12.2768   15.6000   75.1088 C   0  0  0  0  0  0  0  0  0  0  0  0
   -6.4522   19.3092   67.8826 C   0  0  0  0  0  0  0  0  0  0  0  0
  -12.9857   16.5602   75.4320 F   0  0  0  0  0  0  0  0  0  0  0  0
  -11.2725   15.5009   75.8806 F   0  0  0  0  0  0  0  0  0  0  0  0
  -13.0980   14.4900   74.9598 F   0  0  0  0  0  0  0  0  0  0  0  0
   -6.4270   20.4107   67.0342 C   0  0  0  0  0  0  0  0  0  0  0  0
   -7.8087   20.6357   66.4625 C   0  0  0  0  0  0  0  0  0  0  0  0
   -8.8664   19.6540   66.7371 C   0  0  0  0  0  0  0  0  0  0  0  0
   -5.5867   21.3903   66.7974 O   0  0  0  0  0  0  0  0  0  0  0  0
   -4.2558   21.0263   66.9486 C   0  0  0  0  0  0  0  0  0  0  0  0
  1  2  2  0
  1  6  1  0
  1 11  1  0
  2  3  1  0
  3  4  1  0
  3  7  1  0
  4  9  2  0
  4  5  1  0
  5  6  1  0
  5  8  1  0
  6 10  2  0
 11 12  3  0
 16 19  1  0
 19 21  1  0
 19 22  1  0
 19 23  1  0
 24 27  1  0
 27 28  1  0
  8 13  2  0
 13 20  1  0
 20 24  2  0
 24 25  1  0
 25 26  2  0
 26  8  1  0
  7 18  2  0
 18 17  1  0
 17 16  2  0
 16 15  1  0
 15 14  2  0
 14  7  1  0
M  END

$$$$
No_379-gen_results_new/Mpro_initial_molecule_p3/2024-06-19-20-31-25/
     RDKit          3D

 28 30  0  0  0  0  0  0  0  0999 V2000
  -10.3383   15.1532   67.5971 C   0  0  0  0  0  0  0  0  0  0  0  0
  -10.7220   15.1619   68.8301 N   0  0  0  0  0  0  0  0  0  0  0  0
  -10.4044   16.2024   69.6852 N   0  0  0  0  0  0  0  0  0  0  0  0
   -9.7271   17.3221   69.2607 C   0  0  0  0  0  0  0  0  0  0  0  0
   -9.3095   17.3212   67.9557 N   0  0  0  0  0  0  0  0  0  0  0  0
   -9.5450   16.2958   67.0814 C   0  0  0  0  0  0  0  0  0  0  0  0
  -10.8644   16.0907   71.0374 C   0  0  0  0  0  0  0  0  0  0  0  0
   -8.5330   18.4792   67.4604 C   0  0  0  0  0  0  0  0  0  0  0  0
   -9.5433   18.2987   69.9938 O   0  0  0  0  0  0  0  0  0  0  0  0
   -9.1481   16.2876   65.9124 O   0  0  0  0  0  0  0  0  0  0  0  0
  -10.7304   14.0247   66.8209 C   0  0  0  0  0  0  0  0  0  0  0  0
  -11.1003   13.0895   66.2465 N   0  0  0  0  0  0  0  0  0  0  0  0
   -7.0275   18.2876   67.7219 C   0  0  0  0  0  0  0  0  0  0  0  0
  -10.0126   16.3511   72.1395 C   0  0  0  0  0  0  0  0  0  0  0  0
  -10.4883   16.2212   73.4591 C   0  0  0  0  0  0  0  0  0  0  0  0
  -11.8103   15.8022   73.6966 C   0  0  0  0  0  0  0  0  0  0  0  0
  -12.6594   15.5153   72.6113 C   0  0  0  0  0  0  0  0  0  0  0  0
  -12.1896   15.6561   71.2886 C   0  0  0  0  0  0  0  0  0  0  0  0
  -12.2768   15.6000   75.1088 C   0  0  0  0  0  0  0  0  0  0  0  0
   -6.5341   17.3729   68.3685 C   0  0  0  0  0  0  0  0  0  0  0  0
   -5.1308   17.1882   68.5568 C   0  0  0  0  0  0  0  0  0  0  0  0
   -6.2282   19.1886   66.9092 C   0  0  0  0  0  0  0  0  0  0  0  0
   -4.8273   19.0035   67.0391 C   0  0  0  0  0  0  0  0  0  0  0  0
   -4.3060   18.0195   67.7979 C   0  0  0  0  0  0  0  0  0  0  0  0
  -11.9566   16.3202   75.9318 O   0  0  0  0  0  0  0  0  0  0  0  0
  -12.7887   14.4773   75.3653 O   0  0  0  0  0  0  0  0  0  0  0  0
   -6.7604   20.1930   66.1162 O   0  0  0  0  0  0  0  0  0  0  0  0
   -4.6527   16.1687   69.3350 F   0  0  0  0  0  0  0  0  0  0  0  0
  1  2  2  0
  1  6  1  0
  1 11  1  0
  2  3  1  0
  3  4  1  0
  3  7  1  0
  4  9  2  0
  4  5  1  0
  5  6  1  0
  5  8  1  0
  6 10  2  0
  8 13  1  0
 11 12  3  0
 16 19  1  0
 19 25  2  0
 19 26  1  0
 22 27  1  0
 21 28  1  0
 13 20  2  0
 20 21  1  0
 21 24  2  0
 24 23  1  0
 23 22  2  0
 22 13  1  0
  7 18  2  0
 18 17  1  0
 17 16  2  0
 16 15  1  0
 15 14  2  0
 14  7  1  0
M  END

$$$$
No_380-gen_results_new/Mpro_initial_molecule_p3/2024-06-19-20-31-25/
     RDKit          3D

 28 30  0  0  0  0  0  0  0  0999 V2000
  -10.3383   15.1532   67.5971 C   0  0  0  0  0  0  0  0  0  0  0  0
  -10.7220   15.1619   68.8301 N   0  0  0  0  0  0  0  0  0  0  0  0
  -10.4044   16.2024   69.6852 N   0  0  0  0  0  0  0  0  0  0  0  0
   -9.7271   17.3221   69.2607 C   0  0  0  0  0  0  0  0  0  0  0  0
   -9.3095   17.3212   67.9557 N   0  0  0  0  0  0  0  0  0  0  0  0
   -9.5450   16.2958   67.0814 C   0  0  0  0  0  0  0  0  0  0  0  0
  -10.8644   16.0907   71.0374 C   0  0  0  0  0  0  0  0  0  0  0  0
   -8.5330   18.4792   67.4604 C   0  0  0  0  0  0  0  0  0  0  0  0
   -9.5433   18.2987   69.9938 O   0  0  0  0  0  0  0  0  0  0  0  0
   -9.1481   16.2876   65.9124 O   0  0  0  0  0  0  0  0  0  0  0  0
  -10.7304   14.0247   66.8209 C   0  0  0  0  0  0  0  0  0  0  0  0
  -11.1003   13.0895   66.2465 N   0  0  0  0  0  0  0  0  0  0  0  0
   -7.0275   18.2876   67.7219 C   0  0  0  0  0  0  0  0  0  0  0  0
  -10.0126   16.3511   72.1395 C   0  0  0  0  0  0  0  0  0  0  0  0
  -10.4883   16.2212   73.4591 C   0  0  0  0  0  0  0  0  0  0  0  0
  -11.8103   15.8022   73.6966 C   0  0  0  0  0  0  0  0  0  0  0  0
  -12.6594   15.5153   72.6113 C   0  0  0  0  0  0  0  0  0  0  0  0
  -12.1896   15.6561   71.2886 C   0  0  0  0  0  0  0  0  0  0  0  0
  -12.3377   15.5942   75.3311 S   0  0  0  0  0  0  0  0  0  0  0  0
  -12.7357   17.0147   75.6810 N   0  0  0  0  0  0  0  0  0  0  0  0
  -11.2929   14.9330   75.9274 O   0  0  0  0  0  0  0  0  0  0  0  0
   -6.3061   19.3659   66.9234 C   0  0  0  0  0  0  0  0  0  0  0  0
   -4.9685   19.4303   66.9649 C   0  0  0  0  0  0  0  0  0  0  0  0
   -4.2746   20.4216   66.2908 C   0  0  0  0  0  0  0  0  0  0  0  0
   -4.9578   21.5150   65.8669 C   0  0  0  0  0  0  0  0  0  0  0  0
   -6.3571   21.4910   65.8439 C   0  0  0  0  0  0  0  0  0  0  0  0
   -7.0269   20.4628   66.3814 C   0  0  0  0  0  0  0  0  0  0  0  0
  -13.6173   14.7763   75.0064 O   0  0  0  0  0  0  0  0  0  0  0  0
  1  2  2  0
  1  6  1  0
  1 11  1  0
  2  3  1  0
  3  4  1  0
  3  7  1  0
  4  9  2  0
  4  5  1  0
  5  6  1  0
  5  8  1  0
  6 10  2  0
  8 13  1  0
 11 12  3  0
 16 19  1  0
 19 20  1  0
 19 21  2  0
 13 22  1  0
 19 28  2  0
 22 23  2  0
 23 24  1  0
 24 25  2  0
 25 26  1  0
 26 27  2  0
 27 22  1  0
  7 18  2  0
 18 17  1  0
 17 16  2  0
 16 15  1  0
 15 14  2  0
 14  7  1  0
M  END

$$$$
No_381-gen_results_new/Mpro_initial_molecule_p3/2024-06-19-20-31-25/
     RDKit          3D

 28 30  0  0  0  0  0  0  0  0999 V2000
  -10.3383   15.1532   67.5971 C   0  0  0  0  0  0  0  0  0  0  0  0
  -10.7220   15.1619   68.8301 N   0  0  0  0  0  0  0  0  0  0  0  0
  -10.4044   16.2024   69.6852 N   0  0  0  0  0  0  0  0  0  0  0  0
   -9.7271   17.3221   69.2607 C   0  0  0  0  0  0  0  0  0  0  0  0
   -9.3095   17.3212   67.9557 N   0  0  0  0  0  0  0  0  0  0  0  0
   -9.5450   16.2958   67.0814 C   0  0  0  0  0  0  0  0  0  0  0  0
  -10.8644   16.0907   71.0374 C   0  0  0  0  0  0  0  0  0  0  0  0
   -8.5330   18.4792   67.4604 C   0  0  0  0  0  0  0  0  0  0  0  0
   -9.5433   18.2987   69.9938 O   0  0  0  0  0  0  0  0  0  0  0  0
   -9.1481   16.2876   65.9124 O   0  0  0  0  0  0  0  0  0  0  0  0
  -10.7304   14.0247   66.8209 C   0  0  0  0  0  0  0  0  0  0  0  0
  -11.1003   13.0895   66.2465 N   0  0  0  0  0  0  0  0  0  0  0  0
   -7.0275   18.2876   67.7219 C   0  0  0  0  0  0  0  0  0  0  0  0
  -10.0126   16.3511   72.1395 C   0  0  0  0  0  0  0  0  0  0  0  0
  -10.4883   16.2212   73.4591 C   0  0  0  0  0  0  0  0  0  0  0  0
  -11.8103   15.8022   73.6966 C   0  0  0  0  0  0  0  0  0  0  0  0
  -12.6594   15.5153   72.6113 C   0  0  0  0  0  0  0  0  0  0  0  0
  -12.1896   15.6561   71.2886 C   0  0  0  0  0  0  0  0  0  0  0  0
  -12.2768   15.6000   75.1088 C   0  0  0  0  0  0  0  0  0  0  0  0
   -6.5341   17.3729   68.3685 C   0  0  0  0  0  0  0  0  0  0  0  0
   -5.1308   17.1882   68.5568 C   0  0  0  0  0  0  0  0  0  0  0  0
   -6.2352   18.5841   66.5228 C   0  0  0  0  0  0  0  0  0  0  0  0
   -6.8419   19.6361   65.2149 Cl  0  0  0  0  0  0  0  0  0  0  0  0
   -4.3120   17.6298   67.5210 C   0  0  0  0  0  0  0  0  0  0  0  0
   -4.8428   18.4013   66.5204 C   0  0  0  0  0  0  0  0  0  0  0  0
  -12.3527   14.5926   75.5997 O   0  0  0  0  0  0  0  0  0  0  0  0
  -12.4214   16.7486   75.8003 N   0  0  0  0  0  0  0  0  0  0  0  0
   -4.5976   16.2544   69.6674 C   0  0  0  0  0  0  0  0  0  0  0  0
  1  2  2  0
  1  6  1  0
  1 11  1  0
  2  3  1  0
  3  4  1  0
  3  7  1  0
  4  9  2  0
  4  5  1  0
  5  6  1  0
  5  8  1  0
  6 10  2  0
  8 13  1  0
 11 12  3  0
 16 19  1  0
 22 23  1  0
 19 26  2  0
 19 27  1  0
 21 28  1  0
  7 18  2  0
 18 17  1  0
 17 16  2  0
 16 15  1  0
 15 14  2  0
 14  7  1  0
 13 20  2  0
 20 21  1  0
 21 24  2  0
 24 25  1  0
 25 22  2  0
 22 13  1  0
M  END

$$$$
No_382-gen_results_new/Mpro_initial_molecule_p3/2024-06-19-20-31-25/
     RDKit          3D

 28 30  0  0  0  0  0  0  0  0999 V2000
  -10.3383   15.1532   67.5971 C   0  0  0  0  0  0  0  0  0  0  0  0
  -10.7220   15.1619   68.8301 N   0  0  0  0  0  0  0  0  0  0  0  0
  -10.4044   16.2024   69.6852 N   0  0  0  0  0  0  0  0  0  0  0  0
   -9.7271   17.3221   69.2607 C   0  0  0  0  0  0  0  0  0  0  0  0
   -9.3095   17.3212   67.9557 N   0  0  0  0  0  0  0  0  0  0  0  0
   -9.5450   16.2958   67.0814 C   0  0  0  0  0  0  0  0  0  0  0  0
  -10.8644   16.0907   71.0374 C   0  0  0  0  0  0  0  0  0  0  0  0
   -8.5330   18.4792   67.4604 C   0  0  0  0  0  0  0  0  0  0  0  0
   -9.5433   18.2987   69.9938 O   0  0  0  0  0  0  0  0  0  0  0  0
   -9.1481   16.2876   65.9124 O   0  0  0  0  0  0  0  0  0  0  0  0
  -10.7304   14.0247   66.8209 C   0  0  0  0  0  0  0  0  0  0  0  0
  -11.1003   13.0895   66.2465 N   0  0  0  0  0  0  0  0  0  0  0  0
   -7.0275   18.2876   67.7219 C   0  0  0  0  0  0  0  0  0  0  0  0
  -10.0126   16.3511   72.1395 C   0  0  0  0  0  0  0  0  0  0  0  0
  -10.4883   16.2212   73.4591 C   0  0  0  0  0  0  0  0  0  0  0  0
  -11.8103   15.8022   73.6966 C   0  0  0  0  0  0  0  0  0  0  0  0
  -12.6594   15.5153   72.6113 C   0  0  0  0  0  0  0  0  0  0  0  0
  -12.1896   15.6561   71.2886 C   0  0  0  0  0  0  0  0  0  0  0  0
  -12.2768   15.6000   75.1088 C   0  0  0  0  0  0  0  0  0  0  0  0
   -6.5341   17.3729   68.3685 C   0  0  0  0  0  0  0  0  0  0  0  0
   -5.1249   17.1827   68.5818 C   0  0  0  0  0  0  0  0  0  0  0  0
   -4.5277   15.9648   69.5533 Cl  0  0  0  0  0  0  0  0  0  0  0  0
  -12.3531   14.5928   75.5995 O   0  0  0  0  0  0  0  0  0  0  0  0
  -12.4205   16.7489   75.8003 N   0  0  0  0  0  0  0  0  0  0  0  0
   -6.2142   19.4036   67.3493 C   0  0  0  0  0  0  0  0  0  0  0  0
   -4.2641   18.1071   68.1050 C   0  0  0  0  0  0  0  0  0  0  0  0
   -4.8451   19.2838   67.4965 C   0  0  0  0  0  0  0  0  0  0  0  0
   -3.9577   20.3760   67.0715 C   0  0  0  0  0  0  0  0  0  0  0  0
  1  2  2  0
  1  6  1  0
  1 11  1  0
  2  3  1  0
  3  4  1  0
  3  7  1  0
  4  9  2  0
  4  5  1  0
  5  6  1  0
  5  8  1  0
  6 10  2  0
  8 13  1  0
 11 12  3  0
 16 19  1  0
 21 22  1  0
 19 23  2  0
 19 24  1  0
 27 28  1  0
 13 20  2  0
 20 21  1  0
 21 26  2  0
 26 27  1  0
 27 25  2  0
 25 13  1  0
  7 18  2  0
 18 17  1  0
 17 16  2  0
 16 15  1  0
 15 14  2  0
 14  7  1  0
M  END

$$$$
No_383-gen_results_new/Mpro_initial_molecule_p3/2024-06-19-20-31-25/
     RDKit          3D

 28 30  0  0  0  0  0  0  0  0999 V2000
  -10.3383   15.1532   67.5971 C   0  0  0  0  0  0  0  0  0  0  0  0
  -10.7220   15.1619   68.8301 N   0  0  0  0  0  0  0  0  0  0  0  0
  -10.4044   16.2024   69.6852 N   0  0  0  0  0  0  0  0  0  0  0  0
   -9.7271   17.3221   69.2607 C   0  0  0  0  0  0  0  0  0  0  0  0
   -9.3095   17.3212   67.9557 N   0  0  0  0  0  0  0  0  0  0  0  0
   -9.5450   16.2958   67.0814 C   0  0  0  0  0  0  0  0  0  0  0  0
  -10.8644   16.0907   71.0374 C   0  0  0  0  0  0  0  0  0  0  0  0
   -8.5330   18.4792   67.4604 C   0  0  0  0  0  0  0  0  0  0  0  0
   -9.5433   18.2987   69.9938 O   0  0  0  0  0  0  0  0  0  0  0  0
   -9.1481   16.2876   65.9124 O   0  0  0  0  0  0  0  0  0  0  0  0
  -10.7304   14.0247   66.8209 C   0  0  0  0  0  0  0  0  0  0  0  0
  -11.1003   13.0895   66.2465 N   0  0  0  0  0  0  0  0  0  0  0  0
   -7.0275   18.2876   67.7219 C   0  0  0  0  0  0  0  0  0  0  0  0
  -10.0126   16.3511   72.1395 C   0  0  0  0  0  0  0  0  0  0  0  0
  -10.4883   16.2212   73.4591 C   0  0  0  0  0  0  0  0  0  0  0  0
  -11.8103   15.8022   73.6966 C   0  0  0  0  0  0  0  0  0  0  0  0
  -12.6594   15.5153   72.6113 C   0  0  0  0  0  0  0  0  0  0  0  0
  -12.1896   15.6561   71.2886 C   0  0  0  0  0  0  0  0  0  0  0  0
  -12.2768   15.6000   75.1088 C   0  0  0  0  0  0  0  0  0  0  0  0
   -6.5341   17.3729   68.3685 C   0  0  0  0  0  0  0  0  0  0  0  0
   -5.1249   17.1827   68.5818 C   0  0  0  0  0  0  0  0  0  0  0  0
   -4.2977   17.9486   67.7745 C   0  0  0  0  0  0  0  0  0  0  0  0
   -4.8006   18.9009   66.9638 C   0  0  0  0  0  0  0  0  0  0  0  0
   -6.2037   19.0663   66.8226 C   0  0  0  0  0  0  0  0  0  0  0  0
  -12.5816   16.5943   75.6961 O   0  0  0  0  0  0  0  0  0  0  0  0
  -12.1192   14.5199   75.5993 O   0  0  0  0  0  0  0  0  0  0  0  0
  -14.0777   14.9561   72.8079 C   0  0  0  0  0  0  0  0  0  0  0  0
   -6.8583   20.0000   65.9713 N   0  0  0  0  0  0  0  0  0  0  0  0
  1  2  2  0
  1  6  1  0
  1 11  1  0
  2  3  1  0
  3  4  1  0
  3  7  1  0
  4  9  2  0
  4  5  1  0
  5  6  1  0
  5  8  1  0
  6 10  2  0
  8 13  1  0
 11 12  3  0
 16 19  1  0
 19 25  2  0
 19 26  1  0
 17 27  1  0
 24 28  1  0
 13 20  2  0
 20 21  1  0
 21 22  2  0
 22 23  1  0
 23 24  2  0
 24 13  1  0
  7 18  2  0
 18 17  1  0
 17 16  2  0
 16 15  1  0
 15 14  2  0
 14  7  1  0
M  END

$$$$
No_384-gen_results_new/Mpro_initial_molecule_p3/2024-06-19-20-31-25/
     RDKit          3D

 28 30  0  0  0  0  0  0  0  0999 V2000
  -10.3383   15.1532   67.5971 C   0  0  0  0  0  0  0  0  0  0  0  0
  -10.7220   15.1619   68.8301 N   0  0  0  0  0  0  0  0  0  0  0  0
  -10.4044   16.2024   69.6852 N   0  0  0  0  0  0  0  0  0  0  0  0
   -9.7271   17.3221   69.2607 C   0  0  0  0  0  0  0  0  0  0  0  0
   -9.3095   17.3212   67.9557 N   0  0  0  0  0  0  0  0  0  0  0  0
   -9.5450   16.2958   67.0814 C   0  0  0  0  0  0  0  0  0  0  0  0
  -10.8644   16.0907   71.0374 C   0  0  0  0  0  0  0  0  0  0  0  0
   -8.5330   18.4792   67.4604 C   0  0  0  0  0  0  0  0  0  0  0  0
   -9.5433   18.2987   69.9938 O   0  0  0  0  0  0  0  0  0  0  0  0
   -9.1481   16.2876   65.9124 O   0  0  0  0  0  0  0  0  0  0  0  0
  -10.7304   14.0247   66.8209 C   0  0  0  0  0  0  0  0  0  0  0  0
  -11.1003   13.0895   66.2465 N   0  0  0  0  0  0  0  0  0  0  0  0
   -7.0275   18.2876   67.7219 C   0  0  0  0  0  0  0  0  0  0  0  0
  -10.0126   16.3511   72.1395 C   0  0  0  0  0  0  0  0  0  0  0  0
  -10.4883   16.2212   73.4591 C   0  0  0  0  0  0  0  0  0  0  0  0
  -11.8103   15.8022   73.6966 C   0  0  0  0  0  0  0  0  0  0  0  0
  -12.6594   15.5153   72.6113 C   0  0  0  0  0  0  0  0  0  0  0  0
  -12.1896   15.6561   71.2886 C   0  0  0  0  0  0  0  0  0  0  0  0
  -12.2768   15.6000   75.1088 C   0  0  0  0  0  0  0  0  0  0  0  0
   -6.3059   19.3590   66.9154 C   0  0  0  0  0  0  0  0  0  0  0  0
   -4.9893   19.4432   66.9685 C   0  0  0  0  0  0  0  0  0  0  0  0
   -4.2710   18.3392   67.6545 C   0  0  0  0  0  0  0  0  0  0  0  0
   -5.0431   17.2552   68.3050 C   0  0  0  0  0  0  0  0  0  0  0  0
   -6.4246   17.2337   68.1850 C   0  0  0  0  0  0  0  0  0  0  0  0
  -12.3524   14.5924   75.5996 O   0  0  0  0  0  0  0  0  0  0  0  0
  -12.8125   16.6652   75.6555 O   0  0  0  0  0  0  0  0  0  0  0  0
   -4.2027   20.4284   66.3808 C   0  0  0  0  0  0  0  0  0  0  0  0
   -4.3754   20.5766   65.1979 F   0  0  0  0  0  0  0  0  0  0  0  0
  1  2  2  0
  1  6  1  0
  1 11  1  0
  2  3  1  0
  3  4  1  0
  3  7  1  0
  4  9  2  0
  4  5  1  0
  5  6  1  0
  5  8  1  0
  6 10  2  0
  8 13  1  0
 11 12  3  0
 16 19  1  0
 19 25  2  0
 19 26  1  0
 21 27  1  0
 27 28  1  0
 13 20  2  0
 20 21  1  0
 21 22  2  0
 22 23  1  0
 23 24  2  0
 24 13  1  0
  7 18  2  0
 18 17  1  0
 17 16  2  0
 16 15  1  0
 15 14  2  0
 14  7  1  0
M  END

$$$$
No_385-gen_results_new/Mpro_initial_molecule_p3/2024-06-19-20-31-25/
     RDKit          3D

 28 30  0  0  0  0  0  0  0  0999 V2000
  -10.3383   15.1532   67.5971 C   0  0  0  0  0  0  0  0  0  0  0  0
  -10.7220   15.1619   68.8301 N   0  0  0  0  0  0  0  0  0  0  0  0
  -10.4044   16.2024   69.6852 N   0  0  0  0  0  0  0  0  0  0  0  0
   -9.7271   17.3221   69.2607 C   0  0  0  0  0  0  0  0  0  0  0  0
   -9.3095   17.3212   67.9557 N   0  0  0  0  0  0  0  0  0  0  0  0
   -9.5450   16.2958   67.0814 C   0  0  0  0  0  0  0  0  0  0  0  0
  -10.8644   16.0907   71.0374 C   0  0  0  0  0  0  0  0  0  0  0  0
   -8.5330   18.4792   67.4604 C   0  0  0  0  0  0  0  0  0  0  0  0
   -9.5433   18.2987   69.9938 O   0  0  0  0  0  0  0  0  0  0  0  0
   -9.1481   16.2876   65.9124 O   0  0  0  0  0  0  0  0  0  0  0  0
  -10.7304   14.0247   66.8209 C   0  0  0  0  0  0  0  0  0  0  0  0
  -11.1003   13.0895   66.2465 N   0  0  0  0  0  0  0  0  0  0  0  0
   -7.0275   18.2876   67.7219 C   0  0  0  0  0  0  0  0  0  0  0  0
  -10.0126   16.3511   72.1395 C   0  0  0  0  0  0  0  0  0  0  0  0
  -10.4883   16.2212   73.4591 C   0  0  0  0  0  0  0  0  0  0  0  0
  -11.8103   15.8022   73.6966 C   0  0  0  0  0  0  0  0  0  0  0  0
  -12.6594   15.5153   72.6113 C   0  0  0  0  0  0  0  0  0  0  0  0
  -12.1896   15.6561   71.2886 C   0  0  0  0  0  0  0  0  0  0  0  0
  -12.2484   15.6088   75.0145 O   0  0  0  0  0  0  0  0  0  0  0  0
   -6.4522   19.3083   67.8828 C   0  0  0  0  0  0  0  0  0  0  0  0
   -6.2560   20.3852   67.0148 C   0  0  0  0  0  0  0  0  0  0  0  0
   -7.6348   20.5655   66.3051 C   0  0  0  0  0  0  0  0  0  0  0  0
   -8.7557   19.5958   66.5583 C   0  0  0  0  0  0  0  0  0  0  0  0
   -5.4251   21.2899   66.7540 O   0  0  0  0  0  0  0  0  0  0  0  0
  -11.8812   16.5253   75.9080 C   0  0  0  0  0  0  0  0  0  0  0  0
  -13.9777   14.9573   72.7887 O   0  0  0  0  0  0  0  0  0  0  0  0
   -4.1208   20.9936   67.0367 C   0  0  0  0  0  0  0  0  0  0  0  0
   -9.9502   19.6647   65.9544 F   0  0  0  0  0  0  0  0  0  0  0  0
  1  2  2  0
  1  6  1  0
  1 11  1  0
  2  3  1  0
  3  4  1  0
  3  7  1  0
  4  9  2  0
  4  5  1  0
  5  6  1  0
  5  8  1  0
  6 10  2  0
 11 12  3  0
 16 19  1  0
 21 24  1  0
 19 25  1  0
 17 26  1  0
 24 27  1  0
 23 28  1  0
  8 13  2  0
 13 20  1  0
 20 21  2  0
 21 22  1  0
 22 23  2  0
 23  8  1  0
  7 18  2  0
 18 17  1  0
 17 16  2  0
 16 15  1  0
 15 14  2  0
 14  7  1  0
M  END

$$$$
No_386-gen_results_new/Mpro_initial_molecule_p3/2024-06-19-20-31-25/
     RDKit          3D

 28 30  0  0  0  0  0  0  0  0999 V2000
  -10.3383   15.1532   67.5971 C   0  0  0  0  0  0  0  0  0  0  0  0
  -10.7220   15.1619   68.8301 N   0  0  0  0  0  0  0  0  0  0  0  0
  -10.4044   16.2024   69.6852 N   0  0  0  0  0  0  0  0  0  0  0  0
   -9.7271   17.3221   69.2607 C   0  0  0  0  0  0  0  0  0  0  0  0
   -9.3095   17.3212   67.9557 N   0  0  0  0  0  0  0  0  0  0  0  0
   -9.5450   16.2958   67.0814 C   0  0  0  0  0  0  0  0  0  0  0  0
  -10.8644   16.0907   71.0374 C   0  0  0  0  0  0  0  0  0  0  0  0
   -8.5330   18.4792   67.4604 C   0  0  0  0  0  0  0  0  0  0  0  0
   -9.5433   18.2987   69.9938 O   0  0  0  0  0  0  0  0  0  0  0  0
   -9.1481   16.2876   65.9124 O   0  0  0  0  0  0  0  0  0  0  0  0
  -10.7304   14.0247   66.8209 C   0  0  0  0  0  0  0  0  0  0  0  0
  -11.1003   13.0895   66.2465 N   0  0  0  0  0  0  0  0  0  0  0  0
   -7.0275   18.2876   67.7219 C   0  0  0  0  0  0  0  0  0  0  0  0
  -10.0126   16.3511   72.1395 C   0  0  0  0  0  0  0  0  0  0  0  0
  -10.4883   16.2212   73.4591 C   0  0  0  0  0  0  0  0  0  0  0  0
  -11.8103   15.8022   73.6966 C   0  0  0  0  0  0  0  0  0  0  0  0
  -12.6594   15.5153   72.6113 C   0  0  0  0  0  0  0  0  0  0  0  0
  -12.1896   15.6561   71.2886 C   0  0  0  0  0  0  0  0  0  0  0  0
  -12.2484   15.6088   75.0145 O   0  0  0  0  0  0  0  0  0  0  0  0
   -6.4859   19.1438   67.9008 N   0  0  0  0  0  0  0  0  0  0  0  0
   -5.0872   19.0456   67.7885 C   0  0  0  0  0  0  0  0  0  0  0  0
   -4.6166   17.7841   67.2449 C   0  0  0  0  0  0  0  0  0  0  0  0
   -3.2457   17.5079   66.9763 C   0  0  0  0  0  0  0  0  0  0  0  0
   -2.4264   18.5189   67.1409 C   0  0  0  0  0  0  0  0  0  0  0  0
   -4.0809   19.9593   67.9436 C   0  0  0  0  0  0  0  0  0  0  0  0
   -2.7416   19.7802   67.6395 C   0  0  0  0  0  0  0  0  0  0  0  0
  -12.3391   16.7899   75.7233 C   0  0  0  0  0  0  0  0  0  0  0  0
  -14.3005   14.8134   72.8408 Cl  0  0  0  0  0  0  0  0  0  0  0  0
  1  2  2  0
  1  6  1  0
  1 11  1  0
  2  3  1  0
  3  4  1  0
  3  7  1  0
  4  9  2  0
  4  5  1  0
  5  6  1  0
  5  8  1  0
  6 10  2  0
  8 13  1  0
 11 12  3  0
 16 19  1  0
 13 20  1  0
 20 21  1  0
 19 27  1  0
 17 28  1  0
 21 22  2  0
 22 23  1  0
 23 24  2  0
 24 26  1  0
 26 25  2  0
 25 21  1  0
  7 18  2  0
 18 17  1  0
 17 16  2  0
 16 15  1  0
 15 14  2  0
 14  7  1  0
M  END

$$$$
No_387-gen_results_new/Mpro_initial_molecule_p3/2024-06-19-20-31-25/
     RDKit          3D

 28 30  0  0  0  0  0  0  0  0999 V2000
  -10.3383   15.1532   67.5971 C   0  0  0  0  0  0  0  0  0  0  0  0
  -10.7220   15.1619   68.8301 N   0  0  0  0  0  0  0  0  0  0  0  0
  -10.4044   16.2024   69.6852 N   0  0  0  0  0  0  0  0  0  0  0  0
   -9.7271   17.3221   69.2607 C   0  0  0  0  0  0  0  0  0  0  0  0
   -9.3095   17.3212   67.9557 N   0  0  0  0  0  0  0  0  0  0  0  0
   -9.5450   16.2958   67.0814 C   0  0  0  0  0  0  0  0  0  0  0  0
  -10.8644   16.0907   71.0374 C   0  0  0  0  0  0  0  0  0  0  0  0
   -8.5330   18.4792   67.4604 C   0  0  0  0  0  0  0  0  0  0  0  0
   -9.5433   18.2987   69.9938 O   0  0  0  0  0  0  0  0  0  0  0  0
   -9.1481   16.2876   65.9124 O   0  0  0  0  0  0  0  0  0  0  0  0
  -10.7304   14.0247   66.8209 C   0  0  0  0  0  0  0  0  0  0  0  0
  -11.1003   13.0895   66.2465 N   0  0  0  0  0  0  0  0  0  0  0  0
   -7.0275   18.2876   67.7219 C   0  0  0  0  0  0  0  0  0  0  0  0
  -10.0126   16.3511   72.1395 C   0  0  0  0  0  0  0  0  0  0  0  0
  -10.4883   16.2212   73.4591 C   0  0  0  0  0  0  0  0  0  0  0  0
  -11.8103   15.8022   73.6966 C   0  0  0  0  0  0  0  0  0  0  0  0
  -12.6594   15.5153   72.6113 C   0  0  0  0  0  0  0  0  0  0  0  0
  -12.1896   15.6561   71.2886 C   0  0  0  0  0  0  0  0  0  0  0  0
  -12.3486   15.5799   75.3255 Cl  0  0  0  0  0  0  0  0  0  0  0  0
   -6.5344   17.3734   68.3696 C   0  0  0  0  0  0  0  0  0  0  0  0
   -5.1310   17.1884   68.5570 C   0  0  0  0  0  0  0  0  0  0  0  0
   -6.2354   18.5828   66.5225 C   0  0  0  0  0  0  0  0  0  0  0  0
   -4.8742   18.3545   66.5011 C   0  0  0  0  0  0  0  0  0  0  0  0
   -4.3445   17.5529   67.4636 C   0  0  0  0  0  0  0  0  0  0  0  0
  -13.9947   15.0207   72.7828 F   0  0  0  0  0  0  0  0  0  0  0  0
   -2.8637   17.2112   67.3861 C   0  0  0  0  0  0  0  0  0  0  0  0
   -2.0591   17.9334   68.1377 N   0  0  0  0  0  0  0  0  0  0  0  0
   -2.4547   16.3679   66.6305 O   0  0  0  0  0  0  0  0  0  0  0  0
  1  2  2  0
  1  6  1  0
  1 11  1  0
  2  3  1  0
  3  4  1  0
  3  7  1  0
  4  9  2  0
  4  5  1  0
  5  6  1  0
  5  8  1  0
  6 10  2  0
  8 13  1  0
 11 12  3  0
 16 19  1  0
 17 25  1  0
 24 26  1  0
 26 27  1  0
 26 28  2  0
 13 20  2  0
 20 21  1  0
 21 24  2  0
 24 23  1  0
 23 22  2  0
 22 13  1  0
  7 18  2  0
 18 17  1  0
 17 16  2  0
 16 15  1  0
 15 14  2  0
 14  7  1  0
M  END

$$$$
No_388-gen_results_new/Mpro_initial_molecule_p3/2024-06-19-20-31-25/
     RDKit          3D

 28 30  0  0  0  0  0  0  0  0999 V2000
  -10.3383   15.1532   67.5971 C   0  0  0  0  0  0  0  0  0  0  0  0
  -10.7220   15.1619   68.8301 N   0  0  0  0  0  0  0  0  0  0  0  0
  -10.4044   16.2024   69.6852 N   0  0  0  0  0  0  0  0  0  0  0  0
   -9.7271   17.3221   69.2607 C   0  0  0  0  0  0  0  0  0  0  0  0
   -9.3095   17.3212   67.9557 N   0  0  0  0  0  0  0  0  0  0  0  0
   -9.5450   16.2958   67.0814 C   0  0  0  0  0  0  0  0  0  0  0  0
  -10.8644   16.0907   71.0374 C   0  0  0  0  0  0  0  0  0  0  0  0
   -8.5330   18.4792   67.4604 C   0  0  0  0  0  0  0  0  0  0  0  0
   -9.5433   18.2987   69.9938 O   0  0  0  0  0  0  0  0  0  0  0  0
   -9.1481   16.2876   65.9124 O   0  0  0  0  0  0  0  0  0  0  0  0
  -10.7304   14.0247   66.8209 C   0  0  0  0  0  0  0  0  0  0  0  0
  -11.1003   13.0895   66.2465 N   0  0  0  0  0  0  0  0  0  0  0  0
   -7.0275   18.2876   67.7219 C   0  0  0  0  0  0  0  0  0  0  0  0
  -10.0126   16.3511   72.1395 C   0  0  0  0  0  0  0  0  0  0  0  0
  -10.4883   16.2212   73.4591 C   0  0  0  0  0  0  0  0  0  0  0  0
  -11.8103   15.8022   73.6966 C   0  0  0  0  0  0  0  0  0  0  0  0
  -12.6594   15.5153   72.6113 C   0  0  0  0  0  0  0  0  0  0  0  0
  -12.1896   15.6561   71.2886 C   0  0  0  0  0  0  0  0  0  0  0  0
  -12.3486   15.5799   75.3255 Cl  0  0  0  0  0  0  0  0  0  0  0  0
   -6.3899   19.0618   66.8364 O   0  0  0  0  0  0  0  0  0  0  0  0
   -6.5279   17.5641   68.5287 N   0  0  0  0  0  0  0  0  0  0  0  0
  -13.9940   15.0201   72.7833 F   0  0  0  0  0  0  0  0  0  0  0  0
   -5.1605   17.2972   68.5927 C   0  0  0  0  0  0  0  0  0  0  0  0
   -4.6484   16.3027   67.8664 C   0  0  0  0  0  0  0  0  0  0  0  0
   -4.6755   14.9092   68.4077 C   0  0  0  0  0  0  0  0  0  0  0  0
   -5.5225   14.5798   69.5916 C   0  0  0  0  0  0  0  0  0  0  0  0
   -5.6889   15.6414   70.5013 C   0  0  0  0  0  0  0  0  0  0  0  0
   -5.5407   17.0203   70.0572 C   0  0  0  0  0  0  0  0  0  0  0  0
  1  2  2  0
  1  6  1  0
  1 11  1  0
  2  3  1  0
  3  4  1  0
  3  7  1  0
  4  9  2  0
  4  5  1  0
  5  6  1  0
  5  8  1  0
  6 10  2  0
  8 13  1  0
 11 12  3  0
 16 19  1  0
 13 20  2  0
 13 21  1  0
 17 22  1  0
 21 23  1  0
 23 24  2  0
 24 25  1  0
 25 26  2  0
 26 27  1  0
 27 28  2  0
 28 23  1  0
  7 18  2  0
 18 17  1  0
 17 16  2  0
 16 15  1  0
 15 14  2  0
 14  7  1  0
M  END

$$$$
No_389-gen_results_new/Mpro_initial_molecule_p3/2024-06-19-20-31-25/
     RDKit          3D

 28 30  0  0  0  0  0  0  0  0999 V2000
  -10.3383   15.1532   67.5971 C   0  0  0  0  0  0  0  0  0  0  0  0
  -10.7220   15.1619   68.8301 N   0  0  0  0  0  0  0  0  0  0  0  0
  -10.4044   16.2024   69.6852 N   0  0  0  0  0  0  0  0  0  0  0  0
   -9.7271   17.3221   69.2607 C   0  0  0  0  0  0  0  0  0  0  0  0
   -9.3095   17.3212   67.9557 N   0  0  0  0  0  0  0  0  0  0  0  0
   -9.5450   16.2958   67.0814 C   0  0  0  0  0  0  0  0  0  0  0  0
  -10.8644   16.0907   71.0374 C   0  0  0  0  0  0  0  0  0  0  0  0
   -8.5330   18.4792   67.4604 C   0  0  0  0  0  0  0  0  0  0  0  0
   -9.5433   18.2987   69.9938 O   0  0  0  0  0  0  0  0  0  0  0  0
   -9.1481   16.2876   65.9124 O   0  0  0  0  0  0  0  0  0  0  0  0
  -10.7304   14.0247   66.8209 C   0  0  0  0  0  0  0  0  0  0  0  0
  -11.1003   13.0895   66.2465 N   0  0  0  0  0  0  0  0  0  0  0  0
   -7.0275   18.2876   67.7219 C   0  0  0  0  0  0  0  0  0  0  0  0
  -10.0126   16.3511   72.1395 C   0  0  0  0  0  0  0  0  0  0  0  0
  -10.4883   16.2212   73.4591 C   0  0  0  0  0  0  0  0  0  0  0  0
  -11.8103   15.8022   73.6966 C   0  0  0  0  0  0  0  0  0  0  0  0
  -12.6594   15.5153   72.6113 C   0  0  0  0  0  0  0  0  0  0  0  0
  -12.1896   15.6561   71.2886 C   0  0  0  0  0  0  0  0  0  0  0  0
  -12.2768   15.6000   75.1088 C   0  0  0  0  0  0  0  0  0  0  0  0
   -6.5341   17.3729   68.3685 C   0  0  0  0  0  0  0  0  0  0  0  0
   -5.1308   17.1882   68.5568 C   0  0  0  0  0  0  0  0  0  0  0  0
   -6.3132   19.4047   67.2946 C   0  0  0  0  0  0  0  0  0  0  0  0
   -4.9040   19.2890   67.4766 C   0  0  0  0  0  0  0  0  0  0  0  0
   -4.3512   18.1958   68.1017 C   0  0  0  0  0  0  0  0  0  0  0  0
  -12.3515   14.5927   75.5999 O   0  0  0  0  0  0  0  0  0  0  0  0
  -12.4199   16.7492   75.8001 N   0  0  0  0  0  0  0  0  0  0  0  0
   -4.1704   20.3494   67.0914 F   0  0  0  0  0  0  0  0  0  0  0  0
  -13.9707   15.0102   72.8313 O   0  0  0  0  0  0  0  0  0  0  0  0
  1  2  2  0
  1  6  1  0
  1 11  1  0
  2  3  1  0
  3  4  1  0
  3  7  1  0
  4  9  2  0
  4  5  1  0
  5  6  1  0
  5  8  1  0
  6 10  2  0
  8 13  1  0
 11 12  3  0
 16 19  1  0
 19 25  2  0
 19 26  1  0
 23 27  1  0
 17 28  1  0
 13 20  2  0
 20 21  1  0
 21 24  2  0
 24 23  1  0
 23 22  2  0
 22 13  1  0
  7 18  2  0
 18 17  1  0
 17 16  2  0
 16 15  1  0
 15 14  2  0
 14  7  1  0
M  END

$$$$
No_390-gen_results_new/Mpro_initial_molecule_p3/2024-06-19-20-31-25/
     RDKit          3D

 28 30  0  0  0  0  0  0  0  0999 V2000
  -10.3383   15.1532   67.5971 C   0  0  0  0  0  0  0  0  0  0  0  0
  -10.7220   15.1619   68.8301 N   0  0  0  0  0  0  0  0  0  0  0  0
  -10.4044   16.2024   69.6852 N   0  0  0  0  0  0  0  0  0  0  0  0
   -9.7271   17.3221   69.2607 C   0  0  0  0  0  0  0  0  0  0  0  0
   -9.3095   17.3212   67.9557 N   0  0  0  0  0  0  0  0  0  0  0  0
   -9.5450   16.2958   67.0814 C   0  0  0  0  0  0  0  0  0  0  0  0
  -10.8644   16.0907   71.0374 C   0  0  0  0  0  0  0  0  0  0  0  0
   -8.5330   18.4792   67.4604 C   0  0  0  0  0  0  0  0  0  0  0  0
   -9.5433   18.2987   69.9938 O   0  0  0  0  0  0  0  0  0  0  0  0
   -9.1481   16.2876   65.9124 O   0  0  0  0  0  0  0  0  0  0  0  0
  -10.7304   14.0247   66.8209 C   0  0  0  0  0  0  0  0  0  0  0  0
  -11.1003   13.0895   66.2465 N   0  0  0  0  0  0  0  0  0  0  0  0
   -7.0275   18.2876   67.7219 C   0  0  0  0  0  0  0  0  0  0  0  0
  -10.0126   16.3511   72.1395 C   0  0  0  0  0  0  0  0  0  0  0  0
  -10.4883   16.2212   73.4591 C   0  0  0  0  0  0  0  0  0  0  0  0
  -11.8103   15.8022   73.6966 C   0  0  0  0  0  0  0  0  0  0  0  0
  -12.6594   15.5153   72.6113 C   0  0  0  0  0  0  0  0  0  0  0  0
  -12.1896   15.6561   71.2886 C   0  0  0  0  0  0  0  0  0  0  0  0
  -12.3486   15.5799   75.3255 Cl  0  0  0  0  0  0  0  0  0  0  0  0
   -6.3058   19.3592   66.9157 C   0  0  0  0  0  0  0  0  0  0  0  0
   -4.9894   19.4433   66.9687 C   0  0  0  0  0  0  0  0  0  0  0  0
   -4.2950   18.3074   67.6829 C   0  0  0  0  0  0  0  0  0  0  0  0
   -3.0406   18.2078   67.5963 F   0  0  0  0  0  0  0  0  0  0  0  0
   -5.0642   17.1709   68.2352 C   0  0  0  0  0  0  0  0  0  0  0  0
   -6.4713   17.2046   68.1641 C   0  0  0  0  0  0  0  0  0  0  0  0
   -4.1999   20.4883   66.4605 C   0  0  0  0  0  0  0  0  0  0  0  0
   -4.4389   21.5424   66.8963 O   0  0  0  0  0  0  0  0  0  0  0  0
   -3.2921   20.2601   65.5671 N   0  0  0  0  0  0  0  0  0  0  0  0
  1  2  2  0
  1  6  1  0
  1 11  1  0
  2  3  1  0
  3  4  1  0
  3  7  1  0
  4  9  2  0
  4  5  1  0
  5  6  1  0
  5  8  1  0
  6 10  2  0
  8 13  1  0
 11 12  3  0
 16 19  1  0
 22 23  1  0
 21 26  1  0
 26 27  2  0
 26 28  1  0
 13 20  2  0
 20 21  1  0
 21 22  2  0
 22 24  1  0
 24 25  2  0
 25 13  1  0
  7 18  2  0
 18 17  1  0
 17 16  2  0
 16 15  1  0
 15 14  2  0
 14  7  1  0
M  END

$$$$
No_391-gen_results_new/Mpro_initial_molecule_p3/2024-06-19-20-31-25/
     RDKit          3D

 28 30  0  0  0  0  0  0  0  0999 V2000
  -10.3383   15.1532   67.5971 C   0  0  0  0  0  0  0  0  0  0  0  0
  -10.7220   15.1619   68.8301 N   0  0  0  0  0  0  0  0  0  0  0  0
  -10.4044   16.2024   69.6852 N   0  0  0  0  0  0  0  0  0  0  0  0
   -9.7271   17.3221   69.2607 C   0  0  0  0  0  0  0  0  0  0  0  0
   -9.3095   17.3212   67.9557 N   0  0  0  0  0  0  0  0  0  0  0  0
   -9.5450   16.2958   67.0814 C   0  0  0  0  0  0  0  0  0  0  0  0
  -10.8644   16.0907   71.0374 C   0  0  0  0  0  0  0  0  0  0  0  0
   -8.5330   18.4792   67.4604 C   0  0  0  0  0  0  0  0  0  0  0  0
   -9.5433   18.2987   69.9938 O   0  0  0  0  0  0  0  0  0  0  0  0
   -9.1481   16.2876   65.9124 O   0  0  0  0  0  0  0  0  0  0  0  0
  -10.7304   14.0247   66.8209 C   0  0  0  0  0  0  0  0  0  0  0  0
  -11.1003   13.0895   66.2465 N   0  0  0  0  0  0  0  0  0  0  0  0
   -7.0275   18.2876   67.7219 C   0  0  0  0  0  0  0  0  0  0  0  0
  -10.0126   16.3511   72.1395 C   0  0  0  0  0  0  0  0  0  0  0  0
  -10.4883   16.2212   73.4591 C   0  0  0  0  0  0  0  0  0  0  0  0
  -11.8103   15.8022   73.6966 C   0  0  0  0  0  0  0  0  0  0  0  0
  -12.6594   15.5153   72.6113 C   0  0  0  0  0  0  0  0  0  0  0  0
  -12.1896   15.6561   71.2886 C   0  0  0  0  0  0  0  0  0  0  0  0
  -12.2768   15.6000   75.1088 C   0  0  0  0  0  0  0  0  0  0  0  0
   -6.3332   19.2807   66.8947 N   0  0  0  0  0  0  0  0  0  0  0  0
   -4.9893   19.0970   66.8658 C   0  0  0  0  0  0  0  0  0  0  0  0
  -12.3534   14.5919   75.5992 O   0  0  0  0  0  0  0  0  0  0  0  0
  -12.4570   16.7006   75.7589 O   0  0  0  0  0  0  0  0  0  0  0  0
   -4.2334   20.0308   66.0236 C   0  0  0  0  0  0  0  0  0  0  0  0
   -4.8902   21.1689   65.6216 C   0  0  0  0  0  0  0  0  0  0  0  0
   -6.1065   21.4387   66.0858 C   0  0  0  0  0  0  0  0  0  0  0  0
   -6.8767   20.5088   66.6975 C   0  0  0  0  0  0  0  0  0  0  0  0
   -3.8926   22.1674   64.9951 C   0  0  0  0  0  0  0  0  0  0  0  0
  1  2  2  0
  1  6  1  0
  1 11  1  0
  2  3  1  0
  3  4  1  0
  3  7  1  0
  4  9  2  0
  4  5  1  0
  5  6  1  0
  5  8  1  0
  6 10  2  0
  8 13  1  0
 11 12  3  0
 16 19  1  0
 13 20  1  0
 20 21  1  0
 19 22  2  0
 19 23  1  0
 21 24  1  0
 25 26  1  0
 20 27  1  0
 25 28  1  0
 24 25  1  0
 26 27  1  0
  7 18  2  0
 18 17  1  0
 17 16  2  0
 16 15  1  0
 15 14  2  0
 14  7  1  0
M  END

$$$$
No_392-gen_results_new/Mpro_initial_molecule_p3/2024-06-19-20-31-25/
     RDKit          3D

 28 30  0  0  0  0  0  0  0  0999 V2000
  -10.3383   15.1532   67.5971 C   0  0  0  0  0  0  0  0  0  0  0  0
  -10.7220   15.1619   68.8301 N   0  0  0  0  0  0  0  0  0  0  0  0
  -10.4044   16.2024   69.6852 N   0  0  0  0  0  0  0  0  0  0  0  0
   -9.7271   17.3221   69.2607 C   0  0  0  0  0  0  0  0  0  0  0  0
   -9.3095   17.3212   67.9557 N   0  0  0  0  0  0  0  0  0  0  0  0
   -9.5450   16.2958   67.0814 C   0  0  0  0  0  0  0  0  0  0  0  0
  -10.8644   16.0907   71.0374 C   0  0  0  0  0  0  0  0  0  0  0  0
   -8.5330   18.4792   67.4604 C   0  0  0  0  0  0  0  0  0  0  0  0
   -9.5433   18.2987   69.9938 O   0  0  0  0  0  0  0  0  0  0  0  0
   -9.1481   16.2876   65.9124 O   0  0  0  0  0  0  0  0  0  0  0  0
  -10.7304   14.0247   66.8209 C   0  0  0  0  0  0  0  0  0  0  0  0
  -11.1003   13.0895   66.2465 N   0  0  0  0  0  0  0  0  0  0  0  0
   -7.0275   18.2876   67.7219 C   0  0  0  0  0  0  0  0  0  0  0  0
  -10.0126   16.3511   72.1395 C   0  0  0  0  0  0  0  0  0  0  0  0
  -10.4883   16.2212   73.4591 C   0  0  0  0  0  0  0  0  0  0  0  0
  -11.8103   15.8022   73.6966 C   0  0  0  0  0  0  0  0  0  0  0  0
  -12.6594   15.5153   72.6113 C   0  0  0  0  0  0  0  0  0  0  0  0
  -12.1896   15.6561   71.2886 C   0  0  0  0  0  0  0  0  0  0  0  0
  -12.2484   15.6088   75.0145 O   0  0  0  0  0  0  0  0  0  0  0  0
   -6.5341   17.3731   68.3686 C   0  0  0  0  0  0  0  0  0  0  0  0
   -5.1307   17.1884   68.5569 C   0  0  0  0  0  0  0  0  0  0  0  0
   -6.2283   19.1886   66.9090 C   0  0  0  0  0  0  0  0  0  0  0  0
   -6.8373   20.4422   65.9475 Cl  0  0  0  0  0  0  0  0  0  0  0  0
   -4.2995   18.0690   67.8356 C   0  0  0  0  0  0  0  0  0  0  0  0
   -4.8250   19.0598   67.0588 C   0  0  0  0  0  0  0  0  0  0  0  0
  -12.3371   16.7919   75.7213 C   0  0  0  0  0  0  0  0  0  0  0  0
   -4.6359   16.1249   69.3433 N   0  0  0  0  0  0  0  0  0  0  0  0
   -4.4017   14.9652   68.9639 C   0  0  0  0  0  0  0  0  0  0  0  0
  1  2  2  0
  1  6  1  0
  1 11  1  0
  2  3  1  0
  3  4  1  0
  3  7  1  0
  4  9  2  0
  4  5  1  0
  5  6  1  0
  5  8  1  0
  6 10  2  0
  8 13  1  0
 11 12  3  0
 16 19  1  0
 22 23  1  0
 19 26  1  0
 21 27  1  0
 27 28  1  0
  7 18  2  0
 18 17  1  0
 17 16  2  0
 16 15  1  0
 15 14  2  0
 14  7  1  0
 13 20  2  0
 20 21  1  0
 21 24  2  0
 24 25  1  0
 25 22  2  0
 22 13  1  0
M  END

$$$$
No_393-gen_results_new/Mpro_initial_molecule_p3/2024-06-19-20-31-25/
     RDKit          3D

 28 30  0  0  0  0  0  0  0  0999 V2000
  -10.3383   15.1532   67.5971 C   0  0  0  0  0  0  0  0  0  0  0  0
  -10.7220   15.1619   68.8301 N   0  0  0  0  0  0  0  0  0  0  0  0
  -10.4044   16.2024   69.6852 N   0  0  0  0  0  0  0  0  0  0  0  0
   -9.7271   17.3221   69.2607 C   0  0  0  0  0  0  0  0  0  0  0  0
   -9.3095   17.3212   67.9557 N   0  0  0  0  0  0  0  0  0  0  0  0
   -9.5450   16.2958   67.0814 C   0  0  0  0  0  0  0  0  0  0  0  0
  -10.8644   16.0907   71.0374 C   0  0  0  0  0  0  0  0  0  0  0  0
   -8.5330   18.4792   67.4604 C   0  0  0  0  0  0  0  0  0  0  0  0
   -9.5433   18.2987   69.9938 O   0  0  0  0  0  0  0  0  0  0  0  0
   -9.1481   16.2876   65.9124 O   0  0  0  0  0  0  0  0  0  0  0  0
  -10.7304   14.0247   66.8209 C   0  0  0  0  0  0  0  0  0  0  0  0
  -11.1003   13.0895   66.2465 N   0  0  0  0  0  0  0  0  0  0  0  0
   -7.0275   18.2876   67.7219 C   0  0  0  0  0  0  0  0  0  0  0  0
  -10.0126   16.3511   72.1395 C   0  0  0  0  0  0  0  0  0  0  0  0
  -10.4883   16.2212   73.4591 C   0  0  0  0  0  0  0  0  0  0  0  0
  -11.8103   15.8022   73.6966 C   0  0  0  0  0  0  0  0  0  0  0  0
  -12.6594   15.5153   72.6113 C   0  0  0  0  0  0  0  0  0  0  0  0
  -12.1896   15.6561   71.2886 C   0  0  0  0  0  0  0  0  0  0  0  0
  -12.3486   15.5799   75.3255 Cl  0  0  0  0  0  0  0  0  0  0  0  0
   -6.5558   17.2018   67.9045 O   0  0  0  0  0  0  0  0  0  0  0  0
   -6.4130   19.3147   68.0692 N   0  0  0  0  0  0  0  0  0  0  0  0
   -5.0756   19.6793   68.2968 C   0  0  0  0  0  0  0  0  0  0  0  0
   -4.7671   19.6580   69.6590 C   0  0  0  0  0  0  0  0  0  0  0  0
   -3.3674   19.9416   69.9991 C   0  0  0  0  0  0  0  0  0  0  0  0
   -3.0254   19.7582   71.2726 O   0  0  0  0  0  0  0  0  0  0  0  0
   -4.2349   19.9744   67.2417 C   0  0  0  0  0  0  0  0  0  0  0  0
   -2.4264   20.1124   68.9782 C   0  0  0  0  0  0  0  0  0  0  0  0
   -2.8934   20.2273   67.6122 C   0  0  0  0  0  0  0  0  0  0  0  0
  1  2  2  0
  1  6  1  0
  1 11  1  0
  2  3  1  0
  3  4  1  0
  3  7  1  0
  4  9  2  0
  4  5  1  0
  5  6  1  0
  5  8  1  0
  6 10  2  0
  8 13  1  0
 11 12  3  0
 16 19  1  0
 13 20  2  0
 13 21  1  0
 21 22  1  0
 24 25  1  0
 22 23  2  0
 23 24  1  0
 24 27  2  0
 27 28  1  0
 28 26  2  0
 26 22  1  0
  7 18  2  0
 18 17  1  0
 17 16  2  0
 16 15  1  0
 15 14  2  0
 14  7  1  0
M  END

$$$$
No_394-gen_results_new/Mpro_initial_molecule_p3/2024-06-19-20-31-25/
     RDKit          3D

 28 30  0  0  0  0  0  0  0  0999 V2000
  -10.3383   15.1532   67.5971 C   0  0  0  0  0  0  0  0  0  0  0  0
  -10.7220   15.1619   68.8301 N   0  0  0  0  0  0  0  0  0  0  0  0
  -10.4044   16.2024   69.6852 N   0  0  0  0  0  0  0  0  0  0  0  0
   -9.7271   17.3221   69.2607 C   0  0  0  0  0  0  0  0  0  0  0  0
   -9.3095   17.3212   67.9557 N   0  0  0  0  0  0  0  0  0  0  0  0
   -9.5450   16.2958   67.0814 C   0  0  0  0  0  0  0  0  0  0  0  0
  -10.8644   16.0907   71.0374 C   0  0  0  0  0  0  0  0  0  0  0  0
   -8.5330   18.4792   67.4604 C   0  0  0  0  0  0  0  0  0  0  0  0
   -9.5433   18.2987   69.9938 O   0  0  0  0  0  0  0  0  0  0  0  0
   -9.1481   16.2876   65.9124 O   0  0  0  0  0  0  0  0  0  0  0  0
  -10.7304   14.0247   66.8209 C   0  0  0  0  0  0  0  0  0  0  0  0
  -11.1003   13.0895   66.2465 N   0  0  0  0  0  0  0  0  0  0  0  0
   -7.0275   18.2876   67.7219 C   0  0  0  0  0  0  0  0  0  0  0  0
  -10.0126   16.3511   72.1395 C   0  0  0  0  0  0  0  0  0  0  0  0
  -10.4883   16.2212   73.4591 C   0  0  0  0  0  0  0  0  0  0  0  0
  -11.8103   15.8022   73.6966 C   0  0  0  0  0  0  0  0  0  0  0  0
  -12.6594   15.5153   72.6113 C   0  0  0  0  0  0  0  0  0  0  0  0
  -12.1896   15.6561   71.2886 C   0  0  0  0  0  0  0  0  0  0  0  0
  -12.2768   15.6000   75.1088 C   0  0  0  0  0  0  0  0  0  0  0  0
   -6.4522   19.3092   67.8826 C   0  0  0  0  0  0  0  0  0  0  0  0
  -12.3537   14.5923   75.5994 O   0  0  0  0  0  0  0  0  0  0  0  0
  -12.8079   16.7351   75.7027 N   0  0  0  0  0  0  0  0  0  0  0  0
   -6.3184   20.3973   67.0193 C   0  0  0  0  0  0  0  0  0  0  0  0
   -7.7139   20.6233   66.4191 C   0  0  0  0  0  0  0  0  0  0  0  0
   -8.7917   19.6776   66.6209 C   0  0  0  0  0  0  0  0  0  0  0  0
   -5.3311   21.3739   66.7717 C   0  0  0  0  0  0  0  0  0  0  0  0
   -4.3496   21.3367   67.5208 O   0  0  0  0  0  0  0  0  0  0  0  0
   -5.3925   22.0629   65.7168 O   0  0  0  0  0  0  0  0  0  0  0  0
  1  2  2  0
  1  6  1  0
  1 11  1  0
  2  3  1  0
  3  4  1  0
  3  7  1  0
  4  9  2  0
  4  5  1  0
  5  6  1  0
  5  8  1  0
  6 10  2  0
 11 12  3  0
 16 19  1  0
 19 21  2  0
 19 22  1  0
 23 26  1  0
 26 27  2  0
 26 28  1  0
  8 13  2  0
 13 20  1  0
 20 23  2  0
 23 24  1  0
 24 25  2  0
 25  8  1  0
  7 18  2  0
 18 17  1  0
 17 16  2  0
 16 15  1  0
 15 14  2  0
 14  7  1  0
M  END

$$$$
No_395-gen_results_new/Mpro_initial_molecule_p3/2024-06-19-20-31-25/
     RDKit          3D

 28 30  0  0  0  0  0  0  0  0999 V2000
  -10.3383   15.1532   67.5971 C   0  0  0  0  0  0  0  0  0  0  0  0
  -10.7220   15.1619   68.8301 N   0  0  0  0  0  0  0  0  0  0  0  0
  -10.4044   16.2024   69.6852 N   0  0  0  0  0  0  0  0  0  0  0  0
   -9.7271   17.3221   69.2607 C   0  0  0  0  0  0  0  0  0  0  0  0
   -9.3095   17.3212   67.9557 N   0  0  0  0  0  0  0  0  0  0  0  0
   -9.5450   16.2958   67.0814 C   0  0  0  0  0  0  0  0  0  0  0  0
  -10.8644   16.0907   71.0374 C   0  0  0  0  0  0  0  0  0  0  0  0
   -8.5330   18.4792   67.4604 C   0  0  0  0  0  0  0  0  0  0  0  0
   -9.5433   18.2987   69.9938 O   0  0  0  0  0  0  0  0  0  0  0  0
   -9.1481   16.2876   65.9124 O   0  0  0  0  0  0  0  0  0  0  0  0
  -10.7304   14.0247   66.8209 C   0  0  0  0  0  0  0  0  0  0  0  0
  -11.1003   13.0895   66.2465 N   0  0  0  0  0  0  0  0  0  0  0  0
   -7.0275   18.2876   67.7219 C   0  0  0  0  0  0  0  0  0  0  0  0
  -10.0126   16.3511   72.1395 C   0  0  0  0  0  0  0  0  0  0  0  0
  -10.4883   16.2212   73.4591 C   0  0  0  0  0  0  0  0  0  0  0  0
  -11.8103   15.8022   73.6966 C   0  0  0  0  0  0  0  0  0  0  0  0
  -12.6594   15.5153   72.6113 C   0  0  0  0  0  0  0  0  0  0  0  0
  -12.1896   15.6561   71.2886 C   0  0  0  0  0  0  0  0  0  0  0  0
  -12.3486   15.5799   75.3255 Cl  0  0  0  0  0  0  0  0  0  0  0  0
   -6.5344   17.3734   68.3696 C   0  0  0  0  0  0  0  0  0  0  0  0
   -5.1249   17.1828   68.5820 C   0  0  0  0  0  0  0  0  0  0  0  0
   -4.5638   16.2600   69.3585 C   0  0  0  0  0  0  0  0  0  0  0  0
   -3.1940   15.9503   69.2987 C   0  0  0  0  0  0  0  0  0  0  0  0
   -2.3948   16.6502   68.4798 C   0  0  0  0  0  0  0  0  0  0  0  0
   -4.2408   17.8218   67.6478 C   0  0  0  0  0  0  0  0  0  0  0  0
   -0.9796   16.4278   68.4537 C   0  0  0  0  0  0  0  0  0  0  0  0
   -2.9276   17.5714   67.6771 C   0  0  0  0  0  0  0  0  0  0  0  0
   -6.1680   19.1441   66.9271 C   0  0  0  0  0  0  0  0  0  0  0  0
  1  2  2  0
  1  6  1  0
  1 11  1  0
  2  3  1  0
  3  4  1  0
  3  7  1  0
  4  9  2  0
  4  5  1  0
  5  6  1  0
  5  8  1  0
  6 10  2  0
  8 13  1  0
 11 12  3  0
 16 19  1  0
 13 20  2  3
 20 21  1  0
 13 28  1  0
 26 24  1  0
 21 22  2  0
 22 23  1  0
 23 24  2  0
 24 27  1  0
 27 25  2  0
 25 21  1  0
  7 18  2  0
 18 17  1  0
 17 16  2  0
 16 15  1  0
 15 14  2  0
 14  7  1  0
M  END

$$$$
No_396-gen_results_new/Mpro_initial_molecule_p3/2024-06-19-20-31-25/
     RDKit          3D

 28 30  0  0  0  0  0  0  0  0999 V2000
  -10.3383   15.1532   67.5971 C   0  0  0  0  0  0  0  0  0  0  0  0
  -10.7220   15.1619   68.8301 N   0  0  0  0  0  0  0  0  0  0  0  0
  -10.4044   16.2024   69.6852 N   0  0  0  0  0  0  0  0  0  0  0  0
   -9.7271   17.3221   69.2607 C   0  0  0  0  0  0  0  0  0  0  0  0
   -9.3095   17.3212   67.9557 N   0  0  0  0  0  0  0  0  0  0  0  0
   -9.5450   16.2958   67.0814 C   0  0  0  0  0  0  0  0  0  0  0  0
  -10.8644   16.0907   71.0374 C   0  0  0  0  0  0  0  0  0  0  0  0
   -8.5330   18.4792   67.4604 C   0  0  0  0  0  0  0  0  0  0  0  0
   -9.5433   18.2987   69.9938 O   0  0  0  0  0  0  0  0  0  0  0  0
   -9.1481   16.2876   65.9124 O   0  0  0  0  0  0  0  0  0  0  0  0
  -10.7304   14.0247   66.8209 C   0  0  0  0  0  0  0  0  0  0  0  0
  -11.1003   13.0895   66.2465 N   0  0  0  0  0  0  0  0  0  0  0  0
   -7.0275   18.2876   67.7219 C   0  0  0  0  0  0  0  0  0  0  0  0
  -10.0126   16.3511   72.1395 C   0  0  0  0  0  0  0  0  0  0  0  0
  -10.4883   16.2212   73.4591 C   0  0  0  0  0  0  0  0  0  0  0  0
  -11.8103   15.8022   73.6966 C   0  0  0  0  0  0  0  0  0  0  0  0
  -12.6594   15.5153   72.6113 C   0  0  0  0  0  0  0  0  0  0  0  0
  -12.1896   15.6561   71.2886 C   0  0  0  0  0  0  0  0  0  0  0  0
  -12.2484   15.6088   75.0145 O   0  0  0  0  0  0  0  0  0  0  0  0
   -6.3059   19.3591   66.9155 C   0  0  0  0  0  0  0  0  0  0  0  0
   -4.9923   19.4463   66.9703 C   0  0  0  0  0  0  0  0  0  0  0  0
   -4.2717   18.3411   67.6555 C   0  0  0  0  0  0  0  0  0  0  0  0
   -5.0436   17.2562   68.3053 C   0  0  0  0  0  0  0  0  0  0  0  0
   -6.4249   17.2341   68.1852 C   0  0  0  0  0  0  0  0  0  0  0  0
  -12.3382   16.7917   75.7213 C   0  0  0  0  0  0  0  0  0  0  0  0
   -4.2041   20.4303   66.3821 C   0  0  0  0  0  0  0  0  0  0  0  0
   -4.5417   21.5690   66.6519 O   0  0  0  0  0  0  0  0  0  0  0  0
   -3.0009   20.2972   66.0848 O   0  0  0  0  0  0  0  0  0  0  0  0
  1  2  2  0
  1  6  1  0
  1 11  1  0
  2  3  1  0
  3  4  1  0
  3  7  1  0
  4  9  2  0
  4  5  1  0
  5  6  1  0
  5  8  1  0
  6 10  2  0
  8 13  1  0
 11 12  3  0
 16 19  1  0
 19 25  1  0
 21 26  1  0
 26 27  2  0
 26 28  1  0
 13 20  2  0
 20 21  1  0
 21 22  2  0
 22 23  1  0
 23 24  2  0
 24 13  1  0
  7 18  2  0
 18 17  1  0
 17 16  2  0
 16 15  1  0
 15 14  2  0
 14  7  1  0
M  END

$$$$
No_397-gen_results_new/Mpro_initial_molecule_p3/2024-06-19-20-31-25/
     RDKit          3D

 28 30  0  0  0  0  0  0  0  0999 V2000
  -10.3383   15.1532   67.5971 C   0  0  0  0  0  0  0  0  0  0  0  0
  -10.7220   15.1619   68.8301 N   0  0  0  0  0  0  0  0  0  0  0  0
  -10.4044   16.2024   69.6852 N   0  0  0  0  0  0  0  0  0  0  0  0
   -9.7271   17.3221   69.2607 C   0  0  0  0  0  0  0  0  0  0  0  0
   -9.3095   17.3212   67.9557 N   0  0  0  0  0  0  0  0  0  0  0  0
   -9.5450   16.2958   67.0814 C   0  0  0  0  0  0  0  0  0  0  0  0
  -10.8644   16.0907   71.0374 C   0  0  0  0  0  0  0  0  0  0  0  0
   -8.5330   18.4792   67.4604 C   0  0  0  0  0  0  0  0  0  0  0  0
   -9.5433   18.2987   69.9938 O   0  0  0  0  0  0  0  0  0  0  0  0
   -9.1481   16.2876   65.9124 O   0  0  0  0  0  0  0  0  0  0  0  0
  -10.7304   14.0247   66.8209 C   0  0  0  0  0  0  0  0  0  0  0  0
  -11.1003   13.0895   66.2465 N   0  0  0  0  0  0  0  0  0  0  0  0
   -7.0275   18.2876   67.7219 C   0  0  0  0  0  0  0  0  0  0  0  0
  -10.0126   16.3511   72.1395 C   0  0  0  0  0  0  0  0  0  0  0  0
  -10.4883   16.2212   73.4591 C   0  0  0  0  0  0  0  0  0  0  0  0
  -11.8103   15.8022   73.6966 C   0  0  0  0  0  0  0  0  0  0  0  0
  -12.6594   15.5153   72.6113 C   0  0  0  0  0  0  0  0  0  0  0  0
  -12.1896   15.6561   71.2886 C   0  0  0  0  0  0  0  0  0  0  0  0
  -12.2484   15.6088   75.0145 O   0  0  0  0  0  0  0  0  0  0  0  0
   -6.3059   19.3591   66.9155 C   0  0  0  0  0  0  0  0  0  0  0  0
   -6.9559   20.4797   66.4335 C   0  0  0  0  0  0  0  0  0  0  0  0
   -8.3617   20.5503   66.3752 C   0  0  0  0  0  0  0  0  0  0  0  0
   -9.1828   19.4927   66.8326 C   0  0  0  0  0  0  0  0  0  0  0  0
   -5.8675   21.7145   65.8681 Cl  0  0  0  0  0  0  0  0  0  0  0  0
  -11.8821   16.5249   75.9081 C   0  0  0  0  0  0  0  0  0  0  0  0
  -14.0798   14.8996   72.8044 C   0  0  0  0  0  0  0  0  0  0  0  0
   -4.8184   19.1739   67.2295 C   0  0  0  0  0  0  0  0  0  0  0  0
   -4.2436   19.6827   68.4336 C   0  0  0  0  0  0  0  0  0  0  0  0
  1  2  2  0
  1  6  1  0
  1 11  1  0
  2  3  1  0
  3  4  1  0
  3  7  1  0
  4  9  2  0
  4  5  1  0
  5  6  1  0
  5  8  1  0
  6 10  2  0
 11 12  3  0
 16 19  1  0
 21 24  1  0
 19 25  1  0
 17 26  1  0
 20 27  1  0
 27 28  1  0
  8 13  2  0
 13 20  1  0
 20 21  2  0
 21 22  1  0
 22 23  2  0
 23  8  1  0
  7 18  2  0
 18 17  1  0
 17 16  2  0
 16 15  1  0
 15 14  2  0
 14  7  1  0
M  END

$$$$
No_398-gen_results_new/Mpro_initial_molecule_p3/2024-06-19-20-31-25/
     RDKit          3D

 28 30  0  0  0  0  0  0  0  0999 V2000
  -10.3383   15.1532   67.5971 C   0  0  0  0  0  0  0  0  0  0  0  0
  -10.7220   15.1619   68.8301 N   0  0  0  0  0  0  0  0  0  0  0  0
  -10.4044   16.2024   69.6852 N   0  0  0  0  0  0  0  0  0  0  0  0
   -9.7271   17.3221   69.2607 C   0  0  0  0  0  0  0  0  0  0  0  0
   -9.3095   17.3212   67.9557 N   0  0  0  0  0  0  0  0  0  0  0  0
   -9.5450   16.2958   67.0814 C   0  0  0  0  0  0  0  0  0  0  0  0
  -10.8644   16.0907   71.0374 C   0  0  0  0  0  0  0  0  0  0  0  0
   -8.5330   18.4792   67.4604 C   0  0  0  0  0  0  0  0  0  0  0  0
   -9.5433   18.2987   69.9938 O   0  0  0  0  0  0  0  0  0  0  0  0
   -9.1481   16.2876   65.9124 O   0  0  0  0  0  0  0  0  0  0  0  0
  -10.7304   14.0247   66.8209 C   0  0  0  0  0  0  0  0  0  0  0  0
  -11.1003   13.0895   66.2465 N   0  0  0  0  0  0  0  0  0  0  0  0
   -7.0275   18.2876   67.7219 C   0  0  0  0  0  0  0  0  0  0  0  0
  -10.0126   16.3511   72.1395 C   0  0  0  0  0  0  0  0  0  0  0  0
  -10.4883   16.2212   73.4591 C   0  0  0  0  0  0  0  0  0  0  0  0
  -11.8103   15.8022   73.6966 C   0  0  0  0  0  0  0  0  0  0  0  0
  -12.6594   15.5153   72.6113 C   0  0  0  0  0  0  0  0  0  0  0  0
  -12.1896   15.6561   71.2886 C   0  0  0  0  0  0  0  0  0  0  0  0
  -12.3486   15.5799   75.3255 Cl  0  0  0  0  0  0  0  0  0  0  0  0
   -6.5558   17.2018   67.9045 O   0  0  0  0  0  0  0  0  0  0  0  0
   -6.4130   19.3147   68.0692 N   0  0  0  0  0  0  0  0  0  0  0  0
   -5.0756   19.6793   68.2968 C   0  0  0  0  0  0  0  0  0  0  0  0
   -4.7671   19.6580   69.6590 C   0  0  0  0  0  0  0  0  0  0  0  0
   -3.8671   18.8983   70.0413 C   0  0  0  0  0  0  0  0  0  0  0  0
   -2.8096   18.5342   69.0981 C   0  0  0  0  0  0  0  0  0  0  0  0
   -1.9253   17.5449   69.5084 O   0  0  0  0  0  0  0  0  0  0  0  0
   -3.0578   18.4330   67.6552 C   0  0  0  0  0  0  0  0  0  0  0  0
   -4.2702   19.0619   67.3216 C   0  0  0  0  0  0  0  0  0  0  0  0
  1  2  2  0
  1  6  1  0
  1 11  1  0
  2  3  1  0
  3  4  1  0
  3  7  1  0
  4  9  2  0
  4  5  1  0
  5  6  1  0
  5  8  1  0
  6 10  2  0
  8 13  1  0
 11 12  3  0
 16 19  1  0
 13 20  2  0
 13 21  1  0
 21 22  1  0
 25 26  1  0
 22 23  2  0
 23 24  1  0
 24 25  2  0
 25 27  1  0
 27 28  2  0
 28 22  1  0
  7 18  2  0
 18 17  1  0
 17 16  2  0
 16 15  1  0
 15 14  2  0
 14  7  1  0
M  END

$$$$
No_399-gen_results_new/Mpro_initial_molecule_p3/2024-06-19-20-31-25/
     RDKit          3D

 28 29  0  0  0  0  0  0  0  0999 V2000
  -10.3383   15.1532   67.5971 C   0  0  0  0  0  0  0  0  0  0  0  0
  -10.7220   15.1619   68.8301 N   0  0  0  0  0  0  0  0  0  0  0  0
  -10.4044   16.2024   69.6852 N   0  0  0  0  0  0  0  0  0  0  0  0
   -9.7271   17.3221   69.2607 C   0  0  0  0  0  0  0  0  0  0  0  0
   -9.3095   17.3212   67.9557 N   0  0  0  0  0  0  0  0  0  0  0  0
   -9.5450   16.2958   67.0814 C   0  0  0  0  0  0  0  0  0  0  0  0
  -10.8644   16.0907   71.0374 C   0  0  0  0  0  0  0  0  0  0  0  0
   -8.5330   18.4792   67.4604 C   0  0  0  0  0  0  0  0  0  0  0  0
   -9.5433   18.2987   69.9938 O   0  0  0  0  0  0  0  0  0  0  0  0
   -9.1481   16.2876   65.9124 O   0  0  0  0  0  0  0  0  0  0  0  0
  -10.7304   14.0247   66.8209 C   0  0  0  0  0  0  0  0  0  0  0  0
  -11.1003   13.0895   66.2465 N   0  0  0  0  0  0  0  0  0  0  0  0
   -7.0275   18.2876   67.7219 C   0  0  0  0  0  0  0  0  0  0  0  0
  -10.0126   16.3511   72.1395 C   0  0  0  0  0  0  0  0  0  0  0  0
  -10.4883   16.2212   73.4591 C   0  0  0  0  0  0  0  0  0  0  0  0
  -11.8103   15.8022   73.6966 C   0  0  0  0  0  0  0  0  0  0  0  0
  -12.6594   15.5153   72.6113 C   0  0  0  0  0  0  0  0  0  0  0  0
  -12.1896   15.6561   71.2886 C   0  0  0  0  0  0  0  0  0  0  0  0
  -12.2768   15.6000   75.1088 C   0  0  0  0  0  0  0  0  0  0  0  0
   -6.4522   19.3092   67.8826 C   0  0  0  0  0  0  0  0  0  0  0  0
  -12.9857   16.5602   75.4320 F   0  0  0  0  0  0  0  0  0  0  0  0
  -12.9856   14.4805   75.1772 F   0  0  0  0  0  0  0  0  0  0  0  0
  -11.2938   15.4351   75.9521 F   0  0  0  0  0  0  0  0  0  0  0  0
   -4.9634   19.3653   67.9015 C   0  0  0  0  0  0  0  0  0  0  0  0
   -4.2442   20.6382   68.0521 C   0  0  0  0  0  0  0  0  0  0  0  0
   -3.2837   20.4371   69.2180 C   0  0  0  0  0  0  0  0  0  0  0  0
   -2.8812   19.3106   69.3228 O   0  0  0  0  0  0  0  0  0  0  0  0
   -3.0948   21.4303   69.8481 O   0  0  0  0  0  0  0  0  0  0  0  0
  1  2  2  0
  1  6  1  0
  1 11  1  0
  2  3  1  0
  3  4  1  0
  3  7  1  0
  4  9  2  0
  4  5  1  0
  5  6  1  0
  5  8  1  0
  6 10  2  0
  8 13  1  0
 11 12  3  0
 16 19  1  0
 13 20  1  0
 19 21  1  0
 19 22  1  0
 19 23  1  0
 20 24  1  0
 24 25  1  0
 25 26  1  0
 26 27  2  0
 26 28  1  0
  7 18  2  0
 18 17  1  0
 17 16  2  0
 16 15  1  0
 15 14  2  0
 14  7  1  0
M  END

$$$$
No_400-gen_results_new/Mpro_initial_molecule_p3/2024-06-19-20-31-25/
     RDKit          3D

 28 30  0  0  0  0  0  0  0  0999 V2000
  -10.3383   15.1532   67.5971 C   0  0  0  0  0  0  0  0  0  0  0  0
  -10.7220   15.1619   68.8301 N   0  0  0  0  0  0  0  0  0  0  0  0
  -10.4044   16.2024   69.6852 N   0  0  0  0  0  0  0  0  0  0  0  0
   -9.7271   17.3221   69.2607 C   0  0  0  0  0  0  0  0  0  0  0  0
   -9.3095   17.3212   67.9557 N   0  0  0  0  0  0  0  0  0  0  0  0
   -9.5450   16.2958   67.0814 C   0  0  0  0  0  0  0  0  0  0  0  0
  -10.8644   16.0907   71.0374 C   0  0  0  0  0  0  0  0  0  0  0  0
   -8.5330   18.4792   67.4604 C   0  0  0  0  0  0  0  0  0  0  0  0
   -9.5433   18.2987   69.9938 O   0  0  0  0  0  0  0  0  0  0  0  0
   -9.1481   16.2876   65.9124 O   0  0  0  0  0  0  0  0  0  0  0  0
  -10.7304   14.0247   66.8209 C   0  0  0  0  0  0  0  0  0  0  0  0
  -11.1003   13.0895   66.2465 N   0  0  0  0  0  0  0  0  0  0  0  0
   -7.0275   18.2876   67.7219 C   0  0  0  0  0  0  0  0  0  0  0  0
  -10.0126   16.3511   72.1395 C   0  0  0  0  0  0  0  0  0  0  0  0
  -10.4883   16.2212   73.4591 C   0  0  0  0  0  0  0  0  0  0  0  0
  -11.8103   15.8022   73.6966 C   0  0  0  0  0  0  0  0  0  0  0  0
  -12.6594   15.5153   72.6113 C   0  0  0  0  0  0  0  0  0  0  0  0
  -12.1896   15.6561   71.2886 C   0  0  0  0  0  0  0  0  0  0  0  0
  -12.2484   15.6088   75.0145 O   0  0  0  0  0  0  0  0  0  0  0  0
   -6.5341   17.3731   68.3686 C   0  0  0  0  0  0  0  0  0  0  0  0
   -5.1307   17.1884   68.5569 C   0  0  0  0  0  0  0  0  0  0  0  0
   -6.2353   18.5839   66.5227 C   0  0  0  0  0  0  0  0  0  0  0  0
   -4.8739   18.3559   66.5018 C   0  0  0  0  0  0  0  0  0  0  0  0
   -4.3443   17.5536   67.4636 C   0  0  0  0  0  0  0  0  0  0  0  0
  -12.3371   16.7921   75.7210 C   0  0  0  0  0  0  0  0  0  0  0  0
  -13.9747   14.9547   72.7926 O   0  0  0  0  0  0  0  0  0  0  0  0
   -2.9635   17.2325   67.3932 N   0  0  0  0  0  0  0  0  0  0  0  0
   -2.4599   16.1565   67.5711 C   0  0  0  0  0  0  0  0  0  0  0  0
  1  2  2  0
  1  6  1  0
  1 11  1  0
  2  3  1  0
  3  4  1  0
  3  7  1  0
  4  9  2  0
  4  5  1  0
  5  6  1  0
  5  8  1  0
  6 10  2  0
  8 13  1  0
 11 12  3  0
 16 19  1  0
 19 25  1  0
 17 26  1  0
 24 27  1  0
 27 28  1  0
 13 20  2  0
 20 21  1  0
 21 24  2  0
 24 23  1  0
 23 22  2  0
 22 13  1  0
  7 18  2  0
 18 17  1  0
 17 16  2  0
 16 15  1  0
 15 14  2  0
 14  7  1  0
M  END

$$$$
No_401-gen_results_new/Mpro_initial_molecule_p3/2024-06-19-20-31-25/
     RDKit          3D

 25 27  0  0  0  0  0  0  0  0999 V2000
  -10.3383   15.1532   67.5971 C   0  0  0  0  0  0  0  0  0  0  0  0
  -10.7220   15.1619   68.8301 N   0  0  0  0  0  0  0  0  0  0  0  0
  -10.4044   16.2024   69.6852 N   0  0  0  0  0  0  0  0  0  0  0  0
   -9.7271   17.3221   69.2607 C   0  0  0  0  0  0  0  0  0  0  0  0
   -9.3095   17.3212   67.9557 N   0  0  0  0  0  0  0  0  0  0  0  0
   -9.5450   16.2958   67.0814 C   0  0  0  0  0  0  0  0  0  0  0  0
  -10.8644   16.0907   71.0374 C   0  0  0  0  0  0  0  0  0  0  0  0
   -8.5330   18.4792   67.4604 C   0  0  0  0  0  0  0  0  0  0  0  0
   -9.5433   18.2987   69.9938 O   0  0  0  0  0  0  0  0  0  0  0  0
   -9.1481   16.2876   65.9124 O   0  0  0  0  0  0  0  0  0  0  0  0
  -10.7304   14.0247   66.8209 C   0  0  0  0  0  0  0  0  0  0  0  0
  -11.1003   13.0895   66.2465 N   0  0  0  0  0  0  0  0  0  0  0  0
   -7.0275   18.2876   67.7219 C   0  0  0  0  0  0  0  0  0  0  0  0
  -10.0126   16.3511   72.1395 C   0  0  0  0  0  0  0  0  0  0  0  0
  -10.4883   16.2212   73.4591 C   0  0  0  0  0  0  0  0  0  0  0  0
  -11.8103   15.8022   73.6966 C   0  0  0  0  0  0  0  0  0  0  0  0
  -12.6594   15.5153   72.6113 C   0  0  0  0  0  0  0  0  0  0  0  0
  -12.1896   15.6561   71.2886 C   0  0  0  0  0  0  0  0  0  0  0  0
  -12.3486   15.5799   75.3255 Cl  0  0  0  0  0  0  0  0  0  0  0  0
   -6.4523   19.3079   67.8835 C   0  0  0  0  0  0  0  0  0  0  0  0
   -6.2543   20.3849   67.0158 C   0  0  0  0  0  0  0  0  0  0  0  0
   -7.6328   20.5650   66.3045 C   0  0  0  0  0  0  0  0  0  0  0  0
   -8.7493   19.6185   66.5115 C   0  0  0  0  0  0  0  0  0  0  0  0
   -5.1487   21.4843   66.6727 Cl  0  0  0  0  0  0  0  0  0  0  0  0
  -14.3656   14.8868   72.8240 Cl  0  0  0  0  0  0  0  0  0  0  0  0
  1  2  2  0
  1  6  1  0
  1 11  1  0
  2  3  1  0
  3  4  1  0
  3  7  1  0
  4  9  2  0
  4  5  1  0
  5  6  1  0
  5  8  1  0
  6 10  2  0
 11 12  3  0
 16 19  1  0
 21 24  1  0
 17 25  1  0
  8 13  2  0
 13 20  1  0
 20 21  2  0
 21 22  1  0
 22 23  2  0
 23  8  1  0
  7 18  2  0
 18 17  1  0
 17 16  2  0
 16 15  1  0
 15 14  2  0
 14  7  1  0
M  END

$$$$
No_402-gen_results_new/Mpro_initial_molecule_p3/2024-06-19-20-31-25/
     RDKit          3D

 28 30  0  0  0  0  0  0  0  0999 V2000
  -10.3383   15.1532   67.5971 C   0  0  0  0  0  0  0  0  0  0  0  0
  -10.7220   15.1619   68.8301 N   0  0  0  0  0  0  0  0  0  0  0  0
  -10.4044   16.2024   69.6852 N   0  0  0  0  0  0  0  0  0  0  0  0
   -9.7271   17.3221   69.2607 C   0  0  0  0  0  0  0  0  0  0  0  0
   -9.3095   17.3212   67.9557 N   0  0  0  0  0  0  0  0  0  0  0  0
   -9.5450   16.2958   67.0814 C   0  0  0  0  0  0  0  0  0  0  0  0
  -10.8644   16.0907   71.0374 C   0  0  0  0  0  0  0  0  0  0  0  0
   -8.5330   18.4792   67.4604 C   0  0  0  0  0  0  0  0  0  0  0  0
   -9.5433   18.2987   69.9938 O   0  0  0  0  0  0  0  0  0  0  0  0
   -9.1481   16.2876   65.9124 O   0  0  0  0  0  0  0  0  0  0  0  0
  -10.7304   14.0247   66.8209 C   0  0  0  0  0  0  0  0  0  0  0  0
  -11.1003   13.0895   66.2465 N   0  0  0  0  0  0  0  0  0  0  0  0
   -7.0275   18.2876   67.7219 C   0  0  0  0  0  0  0  0  0  0  0  0
  -10.0126   16.3511   72.1395 C   0  0  0  0  0  0  0  0  0  0  0  0
  -10.4883   16.2212   73.4591 C   0  0  0  0  0  0  0  0  0  0  0  0
  -11.8103   15.8022   73.6966 C   0  0  0  0  0  0  0  0  0  0  0  0
  -12.6594   15.5153   72.6113 C   0  0  0  0  0  0  0  0  0  0  0  0
  -12.1896   15.6561   71.2886 C   0  0  0  0  0  0  0  0  0  0  0  0
  -12.3486   15.5799   75.3255 Cl  0  0  0  0  0  0  0  0  0  0  0  0
   -6.3058   19.3592   66.9157 C   0  0  0  0  0  0  0  0  0  0  0  0
   -4.9894   19.4432   66.9687 C   0  0  0  0  0  0  0  0  0  0  0  0
   -4.2978   20.4626   66.3236 C   0  0  0  0  0  0  0  0  0  0  0  0
   -5.0038   21.5273   65.8706 C   0  0  0  0  0  0  0  0  0  0  0  0
   -6.4398   21.4430   65.7743 C   0  0  0  0  0  0  0  0  0  0  0  0
   -7.0866   20.3582   66.2793 C   0  0  0  0  0  0  0  0  0  0  0  0
   -4.2854   22.5683   65.2165 O   0  0  0  0  0  0  0  0  0  0  0  0
  -14.1198   14.9549   72.8042 C   0  0  0  0  0  0  0  0  0  0  0  0
   -6.5627   17.2939   68.3099 O   0  0  0  0  0  0  0  0  0  0  0  0
  1  2  2  0
  1  6  1  0
  1 11  1  0
  2  3  1  0
  3  4  1  0
  3  7  1  0
  4  9  2  0
  4  5  1  0
  5  6  1  0
  5  8  1  0
  6 10  2  0
  8 13  1  0
 11 12  3  0
 16 19  1  0
 13 20  1  0
 23 26  1  0
 17 27  1  0
 13 28  2  0
 20 21  2  0
 21 22  1  0
 22 23  2  0
 23 24  1  0
 24 25  2  0
 25 20  1  0
  7 18  2  0
 18 17  1  0
 17 16  2  0
 16 15  1  0
 15 14  2  0
 14  7  1  0
M  END

$$$$
No_403-gen_results_new/Mpro_initial_molecule_p3/2024-06-19-20-31-25/
     RDKit          3D

 28 30  0  0  0  0  0  0  0  0999 V2000
  -10.3383   15.1532   67.5971 C   0  0  0  0  0  0  0  0  0  0  0  0
  -10.7220   15.1619   68.8301 N   0  0  0  0  0  0  0  0  0  0  0  0
  -10.4044   16.2024   69.6852 N   0  0  0  0  0  0  0  0  0  0  0  0
   -9.7271   17.3221   69.2607 C   0  0  0  0  0  0  0  0  0  0  0  0
   -9.3095   17.3212   67.9557 N   0  0  0  0  0  0  0  0  0  0  0  0
   -9.5450   16.2958   67.0814 C   0  0  0  0  0  0  0  0  0  0  0  0
  -10.8644   16.0907   71.0374 C   0  0  0  0  0  0  0  0  0  0  0  0
   -8.5330   18.4792   67.4604 C   0  0  0  0  0  0  0  0  0  0  0  0
   -9.5433   18.2987   69.9938 O   0  0  0  0  0  0  0  0  0  0  0  0
   -9.1481   16.2876   65.9124 O   0  0  0  0  0  0  0  0  0  0  0  0
  -10.7304   14.0247   66.8209 C   0  0  0  0  0  0  0  0  0  0  0  0
  -11.1003   13.0895   66.2465 N   0  0  0  0  0  0  0  0  0  0  0  0
   -7.0275   18.2876   67.7219 C   0  0  0  0  0  0  0  0  0  0  0  0
  -10.0126   16.3511   72.1395 C   0  0  0  0  0  0  0  0  0  0  0  0
  -10.4883   16.2212   73.4591 C   0  0  0  0  0  0  0  0  0  0  0  0
  -11.8103   15.8022   73.6966 C   0  0  0  0  0  0  0  0  0  0  0  0
  -12.6594   15.5153   72.6113 C   0  0  0  0  0  0  0  0  0  0  0  0
  -12.1896   15.6561   71.2886 C   0  0  0  0  0  0  0  0  0  0  0  0
  -12.3486   15.5799   75.3255 Cl  0  0  0  0  0  0  0  0  0  0  0  0
   -6.3058   19.3592   66.9157 C   0  0  0  0  0  0  0  0  0  0  0  0
   -4.9894   19.4433   66.9687 C   0  0  0  0  0  0  0  0  0  0  0  0
   -4.2710   18.3392   67.6547 C   0  0  0  0  0  0  0  0  0  0  0  0
   -5.0430   17.2550   68.3049 C   0  0  0  0  0  0  0  0  0  0  0  0
   -6.4241   17.2326   68.1847 C   0  0  0  0  0  0  0  0  0  0  0  0
   -4.2029   20.4288   66.3810 C   0  0  0  0  0  0  0  0  0  0  0  0
   -4.1009   20.6157   65.0951 C   0  0  0  0  0  0  0  0  0  0  0  0
   -4.6906   19.7314   64.0359 C   0  0  0  0  0  0  0  0  0  0  0  0
   -3.3556   21.7739   64.5568 C   0  0  0  0  0  0  0  0  0  0  0  0
  1  2  2  0
  1  6  1  0
  1 11  1  0
  2  3  1  0
  3  4  1  0
  3  7  1  0
  4  9  2  0
  4  5  1  0
  5  6  1  0
  5  8  1  0
  6 10  2  0
  8 13  1  0
 11 12  3  0
 16 19  1  0
 21 25  1  0
 25 26  2  3
 26 27  1  0
 26 28  1  0
 13 20  2  0
 20 21  1  0
 21 22  2  0
 22 23  1  0
 23 24  2  0
 24 13  1  0
  7 18  2  0
 18 17  1  0
 17 16  2  0
 16 15  1  0
 15 14  2  0
 14  7  1  0
M  END

$$$$
No_404-gen_results_new/Mpro_initial_molecule_p3/2024-06-19-20-31-25/
     RDKit          3D

 25 27  0  0  0  0  0  0  0  0999 V2000
  -10.3383   15.1532   67.5971 C   0  0  0  0  0  0  0  0  0  0  0  0
  -10.7220   15.1619   68.8301 N   0  0  0  0  0  0  0  0  0  0  0  0
  -10.4044   16.2024   69.6852 N   0  0  0  0  0  0  0  0  0  0  0  0
   -9.7271   17.3221   69.2607 C   0  0  0  0  0  0  0  0  0  0  0  0
   -9.3095   17.3212   67.9557 N   0  0  0  0  0  0  0  0  0  0  0  0
   -9.5450   16.2958   67.0814 C   0  0  0  0  0  0  0  0  0  0  0  0
  -10.8644   16.0907   71.0374 C   0  0  0  0  0  0  0  0  0  0  0  0
   -8.5330   18.4792   67.4604 C   0  0  0  0  0  0  0  0  0  0  0  0
   -9.5433   18.2987   69.9938 O   0  0  0  0  0  0  0  0  0  0  0  0
   -9.1481   16.2876   65.9124 O   0  0  0  0  0  0  0  0  0  0  0  0
  -10.7304   14.0247   66.8209 C   0  0  0  0  0  0  0  0  0  0  0  0
  -11.1003   13.0895   66.2465 N   0  0  0  0  0  0  0  0  0  0  0  0
   -7.0275   18.2876   67.7219 C   0  0  0  0  0  0  0  0  0  0  0  0
  -10.0126   16.3511   72.1395 C   0  0  0  0  0  0  0  0  0  0  0  0
  -10.4883   16.2212   73.4591 C   0  0  0  0  0  0  0  0  0  0  0  0
  -11.8103   15.8022   73.6966 C   0  0  0  0  0  0  0  0  0  0  0  0
  -12.6594   15.5153   72.6113 C   0  0  0  0  0  0  0  0  0  0  0  0
  -12.1896   15.6561   71.2886 C   0  0  0  0  0  0  0  0  0  0  0  0
  -12.3486   15.5799   75.3255 Cl  0  0  0  0  0  0  0  0  0  0  0  0
   -6.3058   19.3592   66.9157 C   0  0  0  0  0  0  0  0  0  0  0  0
   -7.0068   20.0397   66.0823 C   0  0  0  0  0  0  0  0  0  0  0  0
   -8.3353   20.2283   65.8986 C   0  0  0  0  0  0  0  0  0  0  0  0
   -9.1792   19.1618   66.4370 C   0  0  0  0  0  0  0  0  0  0  0  0
   -6.0246   21.0880   65.3618 C   0  0  0  0  0  0  0  0  0  0  0  0
   -4.6829   21.0652   65.6876 C   0  0  0  0  0  0  0  0  0  0  0  0
  1  2  2  0
  1  6  1  0
  1 11  1  0
  2  3  1  0
  3  4  1  0
  3  7  1  0
  4  9  2  0
  4  5  1  0
  5  6  1  0
  5  8  1  0
  6 10  2  0
 11 12  3  0
 16 19  1  0
 21 24  1  0
 24 25  2  0
  8 13  2  0
 13 20  1  0
 20 21  2  0
 21 22  1  0
 22 23  2  0
 23  8  1  0
  7 18  2  0
 18 17  1  0
 17 16  2  0
 16 15  1  0
 15 14  2  0
 14  7  1  0
M  END

$$$$
No_405-gen_results_new/Mpro_initial_molecule_p3/2024-06-19-20-31-25/
     RDKit          3D

 28 30  0  0  0  0  0  0  0  0999 V2000
  -10.3383   15.1532   67.5971 C   0  0  0  0  0  0  0  0  0  0  0  0
  -10.7220   15.1619   68.8301 N   0  0  0  0  0  0  0  0  0  0  0  0
  -10.4044   16.2024   69.6852 N   0  0  0  0  0  0  0  0  0  0  0  0
   -9.7271   17.3221   69.2607 C   0  0  0  0  0  0  0  0  0  0  0  0
   -9.3095   17.3212   67.9557 N   0  0  0  0  0  0  0  0  0  0  0  0
   -9.5450   16.2958   67.0814 C   0  0  0  0  0  0  0  0  0  0  0  0
  -10.8644   16.0907   71.0374 C   0  0  0  0  0  0  0  0  0  0  0  0
   -8.5330   18.4792   67.4604 C   0  0  0  0  0  0  0  0  0  0  0  0
   -9.5433   18.2987   69.9938 O   0  0  0  0  0  0  0  0  0  0  0  0
   -9.1481   16.2876   65.9124 O   0  0  0  0  0  0  0  0  0  0  0  0
  -10.7304   14.0247   66.8209 C   0  0  0  0  0  0  0  0  0  0  0  0
  -11.1003   13.0895   66.2465 N   0  0  0  0  0  0  0  0  0  0  0  0
   -7.0275   18.2876   67.7219 C   0  0  0  0  0  0  0  0  0  0  0  0
  -10.0126   16.3511   72.1395 C   0  0  0  0  0  0  0  0  0  0  0  0
  -10.4883   16.2212   73.4591 C   0  0  0  0  0  0  0  0  0  0  0  0
  -11.8103   15.8022   73.6966 C   0  0  0  0  0  0  0  0  0  0  0  0
  -12.6594   15.5153   72.6113 C   0  0  0  0  0  0  0  0  0  0  0  0
  -12.1896   15.6561   71.2886 C   0  0  0  0  0  0  0  0  0  0  0  0
  -12.3486   15.5799   75.3255 Cl  0  0  0  0  0  0  0  0  0  0  0  0
   -6.3058   19.3592   66.9157 C   0  0  0  0  0  0  0  0  0  0  0  0
   -7.0068   20.0397   66.0823 C   0  0  0  0  0  0  0  0  0  0  0  0
   -8.3353   20.2283   65.8986 C   0  0  0  0  0  0  0  0  0  0  0  0
   -9.1792   19.1618   66.4370 C   0  0  0  0  0  0  0  0  0  0  0  0
   -6.1093   21.0344   65.4132 N   0  0  0  0  0  0  0  0  0  0  0  0
  -13.9968   15.0240   72.7822 F   0  0  0  0  0  0  0  0  0  0  0  0
   -4.9921   20.8659   64.8761 C   0  0  0  0  0  0  0  0  0  0  0  0
   -4.7448   19.8090   64.3456 O   0  0  0  0  0  0  0  0  0  0  0  0
   -4.4112   22.0756   64.0628 C   0  0  0  0  0  0  0  0  0  0  0  0
  1  2  2  0
  1  6  1  0
  1 11  1  0
  2  3  1  0
  3  4  1  0
  3  7  1  0
  4  9  2  0
  4  5  1  0
  5  6  1  0
  5  8  1  0
  6 10  2  0
 11 12  3  0
 16 19  1  0
 21 24  1  0
 17 25  1  0
 24 26  1  0
 26 27  2  0
 26 28  1  0
  8 13  2  0
 13 20  1  0
 20 21  2  0
 21 22  1  0
 22 23  2  0
 23  8  1  0
  7 18  2  0
 18 17  1  0
 17 16  2  0
 16 15  1  0
 15 14  2  0
 14  7  1  0
M  END

$$$$
No_406-gen_results_new/Mpro_initial_molecule_p3/2024-06-19-20-31-25/
     RDKit          3D

 28 30  0  0  0  0  0  0  0  0999 V2000
  -10.3383   15.1532   67.5971 C   0  0  0  0  0  0  0  0  0  0  0  0
  -10.7220   15.1619   68.8301 N   0  0  0  0  0  0  0  0  0  0  0  0
  -10.4044   16.2024   69.6852 N   0  0  0  0  0  0  0  0  0  0  0  0
   -9.7271   17.3221   69.2607 C   0  0  0  0  0  0  0  0  0  0  0  0
   -9.3095   17.3212   67.9557 N   0  0  0  0  0  0  0  0  0  0  0  0
   -9.5450   16.2958   67.0814 C   0  0  0  0  0  0  0  0  0  0  0  0
  -10.8644   16.0907   71.0374 C   0  0  0  0  0  0  0  0  0  0  0  0
   -8.5330   18.4792   67.4604 C   0  0  0  0  0  0  0  0  0  0  0  0
   -9.5433   18.2987   69.9938 O   0  0  0  0  0  0  0  0  0  0  0  0
   -9.1481   16.2876   65.9124 O   0  0  0  0  0  0  0  0  0  0  0  0
  -10.7304   14.0247   66.8209 C   0  0  0  0  0  0  0  0  0  0  0  0
  -11.1003   13.0895   66.2465 N   0  0  0  0  0  0  0  0  0  0  0  0
   -7.0275   18.2876   67.7219 C   0  0  0  0  0  0  0  0  0  0  0  0
  -10.0126   16.3511   72.1395 C   0  0  0  0  0  0  0  0  0  0  0  0
  -10.4883   16.2212   73.4591 C   0  0  0  0  0  0  0  0  0  0  0  0
  -11.8103   15.8022   73.6966 C   0  0  0  0  0  0  0  0  0  0  0  0
  -12.6594   15.5153   72.6113 C   0  0  0  0  0  0  0  0  0  0  0  0
  -12.1896   15.6561   71.2886 C   0  0  0  0  0  0  0  0  0  0  0  0
  -12.2768   15.6000   75.1088 C   0  0  0  0  0  0  0  0  0  0  0  0
   -6.5341   17.3729   68.3685 C   0  0  0  0  0  0  0  0  0  0  0  0
   -5.1308   17.1882   68.5568 C   0  0  0  0  0  0  0  0  0  0  0  0
   -6.3132   19.4047   67.2946 C   0  0  0  0  0  0  0  0  0  0  0  0
   -6.9750   20.7757   66.5689 Cl  0  0  0  0  0  0  0  0  0  0  0  0
   -4.3394   18.2679   68.1394 C   0  0  0  0  0  0  0  0  0  0  0  0
   -4.9135   19.3534   67.5381 C   0  0  0  0  0  0  0  0  0  0  0  0
  -12.3527   14.5924   75.5993 O   0  0  0  0  0  0  0  0  0  0  0  0
  -12.1992   16.7296   75.8913 N   0  0  0  0  0  0  0  0  0  0  0  0
   -4.6484   16.0669   69.1721 F   0  0  0  0  0  0  0  0  0  0  0  0
  1  2  2  0
  1  6  1  0
  1 11  1  0
  2  3  1  0
  3  4  1  0
  3  7  1  0
  4  9  2  0
  4  5  1  0
  5  6  1  0
  5  8  1  0
  6 10  2  0
  8 13  1  0
 11 12  3  0
 16 19  1  0
 22 23  1  0
 19 26  2  0
 19 27  1  0
 21 28  1  0
  7 18  2  0
 18 17  1  0
 17 16  2  0
 16 15  1  0
 15 14  2  0
 14  7  1  0
 13 20  2  0
 20 21  1  0
 21 24  2  0
 24 25  1  0
 25 22  2  0
 22 13  1  0
M  END

$$$$
No_407-gen_results_new/Mpro_initial_molecule_p3/2024-06-19-20-31-25/
     RDKit          3D

 28 30  0  0  0  0  0  0  0  0999 V2000
  -10.3383   15.1532   67.5971 C   0  0  0  0  0  0  0  0  0  0  0  0
  -10.7220   15.1619   68.8301 N   0  0  0  0  0  0  0  0  0  0  0  0
  -10.4044   16.2024   69.6852 N   0  0  0  0  0  0  0  0  0  0  0  0
   -9.7271   17.3221   69.2607 C   0  0  0  0  0  0  0  0  0  0  0  0
   -9.3095   17.3212   67.9557 N   0  0  0  0  0  0  0  0  0  0  0  0
   -9.5450   16.2958   67.0814 C   0  0  0  0  0  0  0  0  0  0  0  0
  -10.8644   16.0907   71.0374 C   0  0  0  0  0  0  0  0  0  0  0  0
   -8.5330   18.4792   67.4604 C   0  0  0  0  0  0  0  0  0  0  0  0
   -9.5433   18.2987   69.9938 O   0  0  0  0  0  0  0  0  0  0  0  0
   -9.1481   16.2876   65.9124 O   0  0  0  0  0  0  0  0  0  0  0  0
  -10.7304   14.0247   66.8209 C   0  0  0  0  0  0  0  0  0  0  0  0
  -11.1003   13.0895   66.2465 N   0  0  0  0  0  0  0  0  0  0  0  0
   -7.0275   18.2876   67.7219 C   0  0  0  0  0  0  0  0  0  0  0  0
  -10.0126   16.3511   72.1395 C   0  0  0  0  0  0  0  0  0  0  0  0
  -10.4883   16.2212   73.4591 C   0  0  0  0  0  0  0  0  0  0  0  0
  -11.8103   15.8022   73.6966 C   0  0  0  0  0  0  0  0  0  0  0  0
  -12.6594   15.5153   72.6113 C   0  0  0  0  0  0  0  0  0  0  0  0
  -12.1896   15.6561   71.2886 C   0  0  0  0  0  0  0  0  0  0  0  0
  -12.2484   15.6088   75.0145 O   0  0  0  0  0  0  0  0  0  0  0  0
   -6.5341   17.3731   68.3686 C   0  0  0  0  0  0  0  0  0  0  0  0
   -5.1307   17.1884   68.5569 C   0  0  0  0  0  0  0  0  0  0  0  0
   -6.2353   18.5839   66.5227 C   0  0  0  0  0  0  0  0  0  0  0  0
   -4.8739   18.3559   66.5018 C   0  0  0  0  0  0  0  0  0  0  0  0
   -4.3443   17.5536   67.4636 C   0  0  0  0  0  0  0  0  0  0  0  0
  -12.3371   16.7921   75.7210 C   0  0  0  0  0  0  0  0  0  0  0  0
  -14.3007   14.8142   72.8438 Cl  0  0  0  0  0  0  0  0  0  0  0  0
   -2.8633   17.2123   67.3863 C   0  0  0  0  0  0  0  0  0  0  0  0
   -2.5475   16.0936   67.1095 N   0  0  0  0  0  0  0  0  0  0  0  0
  1  2  2  0
  1  6  1  0
  1 11  1  0
  2  3  1  0
  3  4  1  0
  3  7  1  0
  4  9  2  0
  4  5  1  0
  5  6  1  0
  5  8  1  0
  6 10  2  0
  8 13  1  0
 11 12  3  0
 16 19  1  0
 19 25  1  0
 17 26  1  0
 24 27  1  0
 27 28  1  0
 13 20  2  0
 20 21  1  0
 21 24  2  0
 24 23  1  0
 23 22  2  0
 22 13  1  0
  7 18  2  0
 18 17  1  0
 17 16  2  0
 16 15  1  0
 15 14  2  0
 14  7  1  0
M  END

$$$$
No_408-gen_results_new/Mpro_initial_molecule_p3/2024-06-19-20-31-25/
     RDKit          3D

 28 30  0  0  0  0  0  0  0  0999 V2000
  -10.3383   15.1532   67.5971 C   0  0  0  0  0  0  0  0  0  0  0  0
  -10.7220   15.1619   68.8301 N   0  0  0  0  0  0  0  0  0  0  0  0
  -10.4044   16.2024   69.6852 N   0  0  0  0  0  0  0  0  0  0  0  0
   -9.7271   17.3221   69.2607 C   0  0  0  0  0  0  0  0  0  0  0  0
   -9.3095   17.3212   67.9557 N   0  0  0  0  0  0  0  0  0  0  0  0
   -9.5450   16.2958   67.0814 C   0  0  0  0  0  0  0  0  0  0  0  0
  -10.8644   16.0907   71.0374 C   0  0  0  0  0  0  0  0  0  0  0  0
   -8.5330   18.4792   67.4604 C   0  0  0  0  0  0  0  0  0  0  0  0
   -9.5433   18.2987   69.9938 O   0  0  0  0  0  0  0  0  0  0  0  0
   -9.1481   16.2876   65.9124 O   0  0  0  0  0  0  0  0  0  0  0  0
  -10.7304   14.0247   66.8209 C   0  0  0  0  0  0  0  0  0  0  0  0
  -11.1003   13.0895   66.2465 N   0  0  0  0  0  0  0  0  0  0  0  0
   -7.0275   18.2876   67.7219 C   0  0  0  0  0  0  0  0  0  0  0  0
  -10.0126   16.3511   72.1395 C   0  0  0  0  0  0  0  0  0  0  0  0
  -10.4883   16.2212   73.4591 C   0  0  0  0  0  0  0  0  0  0  0  0
  -11.8103   15.8022   73.6966 C   0  0  0  0  0  0  0  0  0  0  0  0
  -12.6594   15.5153   72.6113 C   0  0  0  0  0  0  0  0  0  0  0  0
  -12.1896   15.6561   71.2886 C   0  0  0  0  0  0  0  0  0  0  0  0
  -12.2768   15.6000   75.1088 C   0  0  0  0  0  0  0  0  0  0  0  0
   -6.5341   17.3729   68.3685 C   0  0  0  0  0  0  0  0  0  0  0  0
   -5.1249   17.1827   68.5818 C   0  0  0  0  0  0  0  0  0  0  0  0
   -4.4393   18.0516   67.8378 C   0  0  0  0  0  0  0  0  0  0  0  0
   -4.8689   19.0478   67.0695 C   0  0  0  0  0  0  0  0  0  0  0  0
   -6.2627   19.1643   66.9261 C   0  0  0  0  0  0  0  0  0  0  0  0
  -12.5818   16.5942   75.6961 O   0  0  0  0  0  0  0  0  0  0  0  0
  -12.1192   14.5198   75.5992 O   0  0  0  0  0  0  0  0  0  0  0  0
  -14.0776   14.9558   72.8078 C   0  0  0  0  0  0  0  0  0  0  0  0
   -4.1149   19.9057   66.3819 F   0  0  0  0  0  0  0  0  0  0  0  0
  1  2  2  0
  1  6  1  0
  1 11  1  0
  2  3  1  0
  3  4  1  0
  3  7  1  0
  4  9  2  0
  4  5  1  0
  5  6  1  0
  5  8  1  0
  6 10  2  0
  8 13  1  0
 11 12  3  0
 16 19  1  0
 19 25  2  0
 19 26  1  0
 17 27  1  0
 23 28  1  0
 13 20  2  0
 20 21  1  0
 21 22  2  0
 22 23  1  0
 23 24  2  0
 24 13  1  0
  7 18  2  0
 18 17  1  0
 17 16  2  0
 16 15  1  0
 15 14  2  0
 14  7  1  0
M  END

$$$$
No_409-gen_results_new/Mpro_initial_molecule_p3/2024-06-19-20-31-25/
     RDKit          3D

 27 29  0  0  0  0  0  0  0  0999 V2000
  -10.3383   15.1532   67.5971 C   0  0  0  0  0  0  0  0  0  0  0  0
  -10.7220   15.1619   68.8301 N   0  0  0  0  0  0  0  0  0  0  0  0
  -10.4044   16.2024   69.6852 N   0  0  0  0  0  0  0  0  0  0  0  0
   -9.7271   17.3221   69.2607 C   0  0  0  0  0  0  0  0  0  0  0  0
   -9.3095   17.3212   67.9557 N   0  0  0  0  0  0  0  0  0  0  0  0
   -9.5450   16.2958   67.0814 C   0  0  0  0  0  0  0  0  0  0  0  0
  -10.8644   16.0907   71.0374 C   0  0  0  0  0  0  0  0  0  0  0  0
   -8.5330   18.4792   67.4604 C   0  0  0  0  0  0  0  0  0  0  0  0
   -9.5433   18.2987   69.9938 O   0  0  0  0  0  0  0  0  0  0  0  0
   -9.1481   16.2876   65.9124 O   0  0  0  0  0  0  0  0  0  0  0  0
  -10.7304   14.0247   66.8209 C   0  0  0  0  0  0  0  0  0  0  0  0
  -11.1003   13.0895   66.2465 N   0  0  0  0  0  0  0  0  0  0  0  0
   -7.0275   18.2876   67.7219 C   0  0  0  0  0  0  0  0  0  0  0  0
  -10.0126   16.3511   72.1395 C   0  0  0  0  0  0  0  0  0  0  0  0
  -10.4883   16.2212   73.4591 C   0  0  0  0  0  0  0  0  0  0  0  0
  -11.8103   15.8022   73.6966 C   0  0  0  0  0  0  0  0  0  0  0  0
  -12.6594   15.5153   72.6113 C   0  0  0  0  0  0  0  0  0  0  0  0
  -12.1896   15.6561   71.2886 C   0  0  0  0  0  0  0  0  0  0  0  0
  -12.2768   15.6000   75.1088 C   0  0  0  0  0  0  0  0  0  0  0  0
   -6.5521   17.2992   68.1986 N   0  0  0  0  0  0  0  0  0  0  0  0
  -11.9597   16.3233   75.9321 O   0  0  0  0  0  0  0  0  0  0  0  0
   -6.3146   19.4200   67.1972 C   0  0  0  0  0  0  0  0  0  0  0  0
   -6.6823   20.3980   66.3189 C   0  0  0  0  0  0  0  0  0  0  0  0
   -8.1064   20.4015   66.0370 C   0  0  0  0  0  0  0  0  0  0  0  0
   -8.9957   19.3991   66.4800 C   0  0  0  0  0  0  0  0  0  0  0  0
  -12.7871   14.4775   75.3674 O   0  0  0  0  0  0  0  0  0  0  0  0
   -5.6719   21.5495   65.7909 Cl  0  0  0  0  0  0  0  0  0  0  0  0
  1  2  2  0
  1  6  1  0
  1 11  1  0
  2  3  1  0
  3  4  1  0
  3  7  1  0
  4  9  2  0
  4  5  1  0
  5  6  1  0
  5  8  1  0
  6 10  2  0
 11 12  3  0
 16 19  1  0
 19 21  2  0
 19 26  1  0
 23 27  1  0
 20 13  1  0
  8 13  2  0
 13 22  1  0
 22 23  2  0
 23 24  1  0
 24 25  2  0
 25  8  1  0
  7 18  2  0
 18 17  1  0
 17 16  2  0
 16 15  1  0
 15 14  2  0
 14  7  1  0
M  END

$$$$
No_410-gen_results_new/Mpro_initial_molecule_p3/2024-06-19-20-31-25/
     RDKit          3D

 28 30  0  0  0  0  0  0  0  0999 V2000
  -10.3383   15.1532   67.5971 C   0  0  0  0  0  0  0  0  0  0  0  0
  -10.7220   15.1619   68.8301 N   0  0  0  0  0  0  0  0  0  0  0  0
  -10.4044   16.2024   69.6852 N   0  0  0  0  0  0  0  0  0  0  0  0
   -9.7271   17.3221   69.2607 C   0  0  0  0  0  0  0  0  0  0  0  0
   -9.3095   17.3212   67.9557 N   0  0  0  0  0  0  0  0  0  0  0  0
   -9.5450   16.2958   67.0814 C   0  0  0  0  0  0  0  0  0  0  0  0
  -10.8644   16.0907   71.0374 C   0  0  0  0  0  0  0  0  0  0  0  0
   -8.5330   18.4792   67.4604 C   0  0  0  0  0  0  0  0  0  0  0  0
   -9.5433   18.2987   69.9938 O   0  0  0  0  0  0  0  0  0  0  0  0
   -9.1481   16.2876   65.9124 O   0  0  0  0  0  0  0  0  0  0  0  0
  -10.7304   14.0247   66.8209 C   0  0  0  0  0  0  0  0  0  0  0  0
  -11.1003   13.0895   66.2465 N   0  0  0  0  0  0  0  0  0  0  0  0
   -7.0275   18.2876   67.7219 C   0  0  0  0  0  0  0  0  0  0  0  0
  -10.0126   16.3511   72.1395 C   0  0  0  0  0  0  0  0  0  0  0  0
  -10.4883   16.2212   73.4591 C   0  0  0  0  0  0  0  0  0  0  0  0
  -11.8103   15.8022   73.6966 C   0  0  0  0  0  0  0  0  0  0  0  0
  -12.6594   15.5153   72.6113 C   0  0  0  0  0  0  0  0  0  0  0  0
  -12.1896   15.6561   71.2886 C   0  0  0  0  0  0  0  0  0  0  0  0
  -12.3486   15.5799   75.3255 Cl  0  0  0  0  0  0  0  0  0  0  0  0
   -6.4523   19.3079   67.8835 C   0  0  0  0  0  0  0  0  0  0  0  0
   -6.2543   20.3848   67.0158 C   0  0  0  0  0  0  0  0  0  0  0  0
   -6.3456   20.0750   65.8013 C   0  0  0  0  0  0  0  0  0  0  0  0
   -6.5732   19.0614   65.1686 C   0  0  0  0  0  0  0  0  0  0  0  0
   -6.9743   17.8284   66.2311 C   0  0  0  0  0  0  0  0  0  0  0  0
   -5.7206   21.0042   64.7920 N   0  0  0  0  0  0  0  0  0  0  0  0
  -13.9921   14.9915   72.7008 O   0  0  0  0  0  0  0  0  0  0  0  0
   -4.7818   21.0606   64.0656 C   0  0  0  0  0  0  0  0  0  0  0  0
   -4.5781   22.3123   63.3589 C   0  0  0  0  0  0  0  0  0  0  0  0
  1  2  2  0
  1  6  1  0
  1 11  1  0
  2  3  1  0
  3  4  1  0
  3  7  1  0
  4  9  2  0
  4  5  1  0
  5  6  1  0
  5  8  1  0
  6 10  2  0
  8 13  1  0
 11 12  3  0
 16 19  1  0
 22 25  1  0
 17 26  1  0
 25 27  1  0
 27 28  1  0
 13 20  2  0
 20 21  1  0
 21 22  2  0
 22 23  1  0
 23 24  2  0
 24 13  1  0
  7 18  2  0
 18 17  1  0
 17 16  2  0
 16 15  1  0
 15 14  2  0
 14  7  1  0
M  END

$$$$
No_411-gen_results_new/Mpro_initial_molecule_p3/2024-06-19-20-31-25/
     RDKit          3D

 28 30  0  0  0  0  0  0  0  0999 V2000
  -10.3383   15.1532   67.5971 C   0  0  0  0  0  0  0  0  0  0  0  0
  -10.7220   15.1619   68.8301 N   0  0  0  0  0  0  0  0  0  0  0  0
  -10.4044   16.2024   69.6852 N   0  0  0  0  0  0  0  0  0  0  0  0
   -9.7271   17.3221   69.2607 C   0  0  0  0  0  0  0  0  0  0  0  0
   -9.3095   17.3212   67.9557 N   0  0  0  0  0  0  0  0  0  0  0  0
   -9.5450   16.2958   67.0814 C   0  0  0  0  0  0  0  0  0  0  0  0
  -10.8644   16.0907   71.0374 C   0  0  0  0  0  0  0  0  0  0  0  0
   -8.5330   18.4792   67.4604 C   0  0  0  0  0  0  0  0  0  0  0  0
   -9.5433   18.2987   69.9938 O   0  0  0  0  0  0  0  0  0  0  0  0
   -9.1481   16.2876   65.9124 O   0  0  0  0  0  0  0  0  0  0  0  0
  -10.7304   14.0247   66.8209 C   0  0  0  0  0  0  0  0  0  0  0  0
  -11.1003   13.0895   66.2465 N   0  0  0  0  0  0  0  0  0  0  0  0
   -7.0275   18.2876   67.7219 C   0  0  0  0  0  0  0  0  0  0  0  0
  -10.0126   16.3511   72.1395 C   0  0  0  0  0  0  0  0  0  0  0  0
  -10.4883   16.2212   73.4591 C   0  0  0  0  0  0  0  0  0  0  0  0
  -11.8103   15.8022   73.6966 C   0  0  0  0  0  0  0  0  0  0  0  0
  -12.6594   15.5153   72.6113 C   0  0  0  0  0  0  0  0  0  0  0  0
  -12.1896   15.6561   71.2886 C   0  0  0  0  0  0  0  0  0  0  0  0
  -12.2484   15.6088   75.0145 O   0  0  0  0  0  0  0  0  0  0  0  0
   -6.3333   19.2808   66.8948 N   0  0  0  0  0  0  0  0  0  0  0  0
   -4.9892   19.0974   66.8659 C   0  0  0  0  0  0  0  0  0  0  0  0
   -4.3968   18.0780   67.3109 O   0  0  0  0  0  0  0  0  0  0  0  0
   -4.1021   20.1926   66.2328 C   0  0  0  0  0  0  0  0  0  0  0  0
   -2.8047   20.0503   66.3829 C   0  0  0  0  0  0  0  0  0  0  0  0
   -4.7771   21.3641   65.6792 C   0  0  0  0  0  0  0  0  0  0  0  0
   -3.8488   22.3418   65.2986 N   0  0  0  0  0  0  0  0  0  0  0  0
   -2.6040   22.2118   65.4642 C   0  0  0  0  0  0  0  0  0  0  0  0
   -1.9818   21.1605   65.9876 C   0  0  0  0  0  0  0  0  0  0  0  0
  1  2  2  0
  1  6  1  0
  1 11  1  0
  2  3  1  0
  3  4  1  0
  3  7  1  0
  4  9  2  0
  4  5  1  0
  5  6  1  0
  5  8  1  0
  6 10  2  0
  8 13  1  0
 11 12  3  0
 16 19  1  0
 13 20  1  0
 20 21  1  0
 21 22  2  0
 21 23  1  0
 23 24  2  0
 24 28  1  0
 28 27  2  0
 27 26  1  0
 26 25  2  0
 25 23  1  0
  7 18  2  0
 18 17  1  0
 17 16  2  0
 16 15  1  0
 15 14  2  0
 14  7  1  0
M  END

$$$$
No_412-gen_results_new/Mpro_initial_molecule_p3/2024-06-19-20-31-25/
     RDKit          3D

 28 29  0  0  0  0  0  0  0  0999 V2000
  -10.3383   15.1532   67.5971 C   0  0  0  0  0  0  0  0  0  0  0  0
  -10.7220   15.1619   68.8301 N   0  0  0  0  0  0  0  0  0  0  0  0
  -10.4044   16.2024   69.6852 N   0  0  0  0  0  0  0  0  0  0  0  0
   -9.7271   17.3221   69.2607 C   0  0  0  0  0  0  0  0  0  0  0  0
   -9.3095   17.3212   67.9557 N   0  0  0  0  0  0  0  0  0  0  0  0
   -9.5450   16.2958   67.0814 C   0  0  0  0  0  0  0  0  0  0  0  0
  -10.8644   16.0907   71.0374 C   0  0  0  0  0  0  0  0  0  0  0  0
   -8.5330   18.4792   67.4604 C   0  0  0  0  0  0  0  0  0  0  0  0
   -9.5433   18.2987   69.9938 O   0  0  0  0  0  0  0  0  0  0  0  0
   -9.1481   16.2876   65.9124 O   0  0  0  0  0  0  0  0  0  0  0  0
  -10.7304   14.0247   66.8209 C   0  0  0  0  0  0  0  0  0  0  0  0
  -11.1003   13.0895   66.2465 N   0  0  0  0  0  0  0  0  0  0  0  0
   -7.0275   18.2876   67.7219 C   0  0  0  0  0  0  0  0  0  0  0  0
  -10.0126   16.3511   72.1395 C   0  0  0  0  0  0  0  0  0  0  0  0
  -10.4883   16.2212   73.4591 C   0  0  0  0  0  0  0  0  0  0  0  0
  -11.8103   15.8022   73.6966 C   0  0  0  0  0  0  0  0  0  0  0  0
  -12.6594   15.5153   72.6113 C   0  0  0  0  0  0  0  0  0  0  0  0
  -12.1896   15.6561   71.2886 C   0  0  0  0  0  0  0  0  0  0  0  0
  -12.2768   15.6000   75.1088 C   0  0  0  0  0  0  0  0  0  0  0  0
   -6.3901   19.0612   66.8360 O   0  0  0  0  0  0  0  0  0  0  0  0
  -11.9784   16.5263   75.8871 N   0  0  0  0  0  0  0  0  0  0  0  0
   -6.5270   17.5651   68.5295 N   0  0  0  0  0  0  0  0  0  0  0  0
  -12.6503   14.5274   75.4124 O   0  0  0  0  0  0  0  0  0  0  0  0
   -5.1603   17.2991   68.5949 C   0  0  0  0  0  0  0  0  0  0  0  0
   -4.5358   17.9007   69.7489 C   0  0  0  0  0  0  0  0  0  0  0  0
   -4.3044   19.1712   69.7146 C   0  0  0  0  0  0  0  0  0  0  0  0
   -4.1366   20.0882   68.7108 C   0  0  0  0  0  0  0  0  0  0  0  0
   -3.3148   19.4166   70.9046 C   0  0  0  0  0  0  0  0  0  0  0  0
  1  2  2  0
  1  6  1  0
  1 11  1  0
  2  3  1  0
  3  4  1  0
  3  7  1  0
  4  9  2  0
  4  5  1  0
  5  6  1  0
  5  8  1  0
  6 10  2  0
  8 13  1  0
 11 12  3  0
 16 19  1  0
 13 20  2  0
 19 21  1  0
 13 22  1  0
 19 23  2  0
 22 24  1  0
 24 25  1  0
 25 26  1  0
 26 27  1  0
 26 28  1  0
  7 18  2  0
 18 17  1  0
 17 16  2  0
 16 15  1  0
 15 14  2  0
 14  7  1  0
M  END

$$$$
No_413-gen_results_new/Mpro_initial_molecule_p3/2024-06-19-20-31-25/
     RDKit          3D

 28 30  0  0  0  0  0  0  0  0999 V2000
  -10.3383   15.1532   67.5971 C   0  0  0  0  0  0  0  0  0  0  0  0
  -10.7220   15.1619   68.8301 N   0  0  0  0  0  0  0  0  0  0  0  0
  -10.4044   16.2024   69.6852 N   0  0  0  0  0  0  0  0  0  0  0  0
   -9.7271   17.3221   69.2607 C   0  0  0  0  0  0  0  0  0  0  0  0
   -9.3095   17.3212   67.9557 N   0  0  0  0  0  0  0  0  0  0  0  0
   -9.5450   16.2958   67.0814 C   0  0  0  0  0  0  0  0  0  0  0  0
  -10.8644   16.0907   71.0374 C   0  0  0  0  0  0  0  0  0  0  0  0
   -8.5330   18.4792   67.4604 C   0  0  0  0  0  0  0  0  0  0  0  0
   -9.5433   18.2987   69.9938 O   0  0  0  0  0  0  0  0  0  0  0  0
   -9.1481   16.2876   65.9124 O   0  0  0  0  0  0  0  0  0  0  0  0
  -10.7304   14.0247   66.8209 C   0  0  0  0  0  0  0  0  0  0  0  0
  -11.1003   13.0895   66.2465 N   0  0  0  0  0  0  0  0  0  0  0  0
   -7.0275   18.2876   67.7219 C   0  0  0  0  0  0  0  0  0  0  0  0
  -10.0126   16.3511   72.1395 C   0  0  0  0  0  0  0  0  0  0  0  0
  -10.4883   16.2212   73.4591 C   0  0  0  0  0  0  0  0  0  0  0  0
  -11.8103   15.8022   73.6966 C   0  0  0  0  0  0  0  0  0  0  0  0
  -12.6594   15.5153   72.6113 C   0  0  0  0  0  0  0  0  0  0  0  0
  -12.1896   15.6561   71.2886 C   0  0  0  0  0  0  0  0  0  0  0  0
  -12.2768   15.6000   75.1088 C   0  0  0  0  0  0  0  0  0  0  0  0
   -6.4522   19.3092   67.8826 C   0  0  0  0  0  0  0  0  0  0  0  0
  -11.9783   16.5270   75.8867 N   0  0  0  0  0  0  0  0  0  0  0  0
   -4.9616   19.3659   67.8962 C   0  0  0  0  0  0  0  0  0  0  0  0
   -4.2442   20.6403   68.0480 C   0  0  0  0  0  0  0  0  0  0  0  0
   -3.2835   20.4395   69.2127 C   0  0  0  0  0  0  0  0  0  0  0  0
   -2.7313   19.2312   69.5960 C   0  0  0  0  0  0  0  0  0  0  0  0
   -3.4997   18.0083   69.5374 C   0  0  0  0  0  0  0  0  0  0  0  0
   -4.6061   18.0365   68.9790 C   0  0  0  0  0  0  0  0  0  0  0  0
   -4.5347   21.4537   67.3473 O   0  0  0  0  0  0  0  0  0  0  0  0
  1  2  2  0
  1  6  1  0
  1 11  1  0
  2  3  1  0
  3  4  1  0
  3  7  1  0
  4  9  2  0
  4  5  1  0
  5  6  1  0
  5  8  1  0
  6 10  2  0
  8 13  1  0
 11 12  3  0
 16 19  1  0
 13 20  1  0
 19 21  1  0
 20 22  1  0
 23 28  1  0
 22 23  2  0
 23 24  1  0
 24 25  2  0
 25 26  1  0
 26 27  2  0
 27 22  1  0
  7 18  2  0
 18 17  1  0
 17 16  2  0
 16 15  1  0
 15 14  2  0
 14  7  1  0
M  END

$$$$
No_414-gen_results_new/Mpro_initial_molecule_p3/2024-06-19-20-31-25/
     RDKit          3D

 25 27  0  0  0  0  0  0  0  0999 V2000
  -10.3383   15.1532   67.5971 C   0  0  0  0  0  0  0  0  0  0  0  0
  -10.7220   15.1619   68.8301 N   0  0  0  0  0  0  0  0  0  0  0  0
  -10.4044   16.2024   69.6852 N   0  0  0  0  0  0  0  0  0  0  0  0
   -9.7271   17.3221   69.2607 C   0  0  0  0  0  0  0  0  0  0  0  0
   -9.3095   17.3212   67.9557 N   0  0  0  0  0  0  0  0  0  0  0  0
   -9.5450   16.2958   67.0814 C   0  0  0  0  0  0  0  0  0  0  0  0
  -10.8644   16.0907   71.0374 C   0  0  0  0  0  0  0  0  0  0  0  0
   -8.5330   18.4792   67.4604 C   0  0  0  0  0  0  0  0  0  0  0  0
   -9.5433   18.2987   69.9938 O   0  0  0  0  0  0  0  0  0  0  0  0
   -9.1481   16.2876   65.9124 O   0  0  0  0  0  0  0  0  0  0  0  0
  -10.7304   14.0247   66.8209 C   0  0  0  0  0  0  0  0  0  0  0  0
  -11.1003   13.0895   66.2465 N   0  0  0  0  0  0  0  0  0  0  0  0
   -7.0275   18.2876   67.7219 C   0  0  0  0  0  0  0  0  0  0  0  0
  -10.0126   16.3511   72.1395 C   0  0  0  0  0  0  0  0  0  0  0  0
  -10.4883   16.2212   73.4591 C   0  0  0  0  0  0  0  0  0  0  0  0
  -11.8103   15.8022   73.6966 C   0  0  0  0  0  0  0  0  0  0  0  0
  -12.6594   15.5153   72.6113 C   0  0  0  0  0  0  0  0  0  0  0  0
  -12.1896   15.6561   71.2886 C   0  0  0  0  0  0  0  0  0  0  0  0
  -12.3486   15.5799   75.3255 Cl  0  0  0  0  0  0  0  0  0  0  0  0
   -6.4523   19.3079   67.8835 C   0  0  0  0  0  0  0  0  0  0  0  0
   -5.0368   19.2418   67.8299 N   0  0  0  0  0  0  0  0  0  0  0  0
   -4.6657   17.8491   67.5429 C   0  0  0  0  0  0  0  0  0  0  0  0
   -5.4062   16.7437   67.2945 C   0  0  0  0  0  0  0  0  0  0  0  0
   -6.7511   16.9840   67.3555 C   0  0  0  0  0  0  0  0  0  0  0  0
  -13.9948   15.0205   72.7828 F   0  0  0  0  0  0  0  0  0  0  0  0
  1  2  2  0
  1  6  1  0
  1 11  1  0
  2  3  1  0
  3  4  1  0
  3  7  1  0
  4  9  2  0
  4  5  1  0
  5  6  1  0
  5  8  1  0
  6 10  2  0
  8 13  1  0
 11 12  3  0
 16 19  1  0
 17 25  1  0
 13 20  2  0
 20 21  1  0
 21 22  2  0
 22 23  1  0
 23 24  2  0
 24 13  1  0
  7 18  2  0
 18 17  1  0
 17 16  2  0
 16 15  1  0
 15 14  2  0
 14  7  1  0
M  END

$$$$
No_415-gen_results_new/Mpro_initial_molecule_p3/2024-06-19-20-31-25/
     RDKit          3D

 28 30  0  0  0  0  0  0  0  0999 V2000
  -10.3383   15.1532   67.5971 C   0  0  0  0  0  0  0  0  0  0  0  0
  -10.7220   15.1619   68.8301 N   0  0  0  0  0  0  0  0  0  0  0  0
  -10.4044   16.2024   69.6852 N   0  0  0  0  0  0  0  0  0  0  0  0
   -9.7271   17.3221   69.2607 C   0  0  0  0  0  0  0  0  0  0  0  0
   -9.3095   17.3212   67.9557 N   0  0  0  0  0  0  0  0  0  0  0  0
   -9.5450   16.2958   67.0814 C   0  0  0  0  0  0  0  0  0  0  0  0
  -10.8644   16.0907   71.0374 C   0  0  0  0  0  0  0  0  0  0  0  0
   -8.5330   18.4792   67.4604 C   0  0  0  0  0  0  0  0  0  0  0  0
   -9.5433   18.2987   69.9938 O   0  0  0  0  0  0  0  0  0  0  0  0
   -9.1481   16.2876   65.9124 O   0  0  0  0  0  0  0  0  0  0  0  0
  -10.7304   14.0247   66.8209 C   0  0  0  0  0  0  0  0  0  0  0  0
  -11.1003   13.0895   66.2465 N   0  0  0  0  0  0  0  0  0  0  0  0
   -7.0275   18.2876   67.7219 C   0  0  0  0  0  0  0  0  0  0  0  0
  -10.0126   16.3511   72.1395 C   0  0  0  0  0  0  0  0  0  0  0  0
  -10.4883   16.2212   73.4591 C   0  0  0  0  0  0  0  0  0  0  0  0
  -11.8103   15.8022   73.6966 C   0  0  0  0  0  0  0  0  0  0  0  0
  -12.6594   15.5153   72.6113 C   0  0  0  0  0  0  0  0  0  0  0  0
  -12.1896   15.6561   71.2886 C   0  0  0  0  0  0  0  0  0  0  0  0
  -12.2768   15.6000   75.1088 C   0  0  0  0  0  0  0  0  0  0  0  0
   -6.5341   17.3729   68.3685 C   0  0  0  0  0  0  0  0  0  0  0  0
   -5.2032   17.6239   68.8100 C   0  0  0  0  0  0  0  0  0  0  0  0
   -4.3964   18.3715   68.1918 C   0  0  0  0  0  0  0  0  0  0  0  0
   -4.9307   19.3254   67.3303 C   0  0  0  0  0  0  0  0  0  0  0  0
   -4.1328   20.2603   66.7446 C   0  0  0  0  0  0  0  0  0  0  0  0
   -6.3507   19.3325   67.0673 C   0  0  0  0  0  0  0  0  0  0  0  0
   -4.4634   21.4640   66.7578 O   0  0  0  0  0  0  0  0  0  0  0  0
   -2.9088   20.0127   66.2795 N   0  0  0  0  0  0  0  0  0  0  0  0
  -12.5214   16.2832   75.8665 N   0  0  0  0  0  0  0  0  0  0  0  0
  1  2  2  0
  1  6  1  0
  1 11  1  0
  2  3  1  0
  3  4  1  0
  3  7  1  0
  4  9  2  0
  4  5  1  0
  5  6  1  0
  5  8  1  0
  6 10  2  0
  8 13  1  0
 11 12  3  0
 16 19  1  0
 23 24  1  0
 24 26  2  0
 24 27  1  0
 19 28  1  0
 13 20  2  0
 20 21  1  0
 21 22  2  0
 22 23  1  0
 23 25  2  0
 25 13  1  0
  7 18  2  0
 18 17  1  0
 17 16  2  0
 16 15  1  0
 15 14  2  0
 14  7  1  0
M  END

$$$$
No_416-gen_results_new/Mpro_initial_molecule_p3/2024-06-19-20-31-25/
     RDKit          3D

 28 30  0  0  0  0  0  0  0  0999 V2000
  -10.3383   15.1532   67.5971 C   0  0  0  0  0  0  0  0  0  0  0  0
  -10.7220   15.1619   68.8301 N   0  0  0  0  0  0  0  0  0  0  0  0
  -10.4044   16.2024   69.6852 N   0  0  0  0  0  0  0  0  0  0  0  0
   -9.7271   17.3221   69.2607 C   0  0  0  0  0  0  0  0  0  0  0  0
   -9.3095   17.3212   67.9557 N   0  0  0  0  0  0  0  0  0  0  0  0
   -9.5450   16.2958   67.0814 C   0  0  0  0  0  0  0  0  0  0  0  0
  -10.8644   16.0907   71.0374 C   0  0  0  0  0  0  0  0  0  0  0  0
   -8.5330   18.4792   67.4604 C   0  0  0  0  0  0  0  0  0  0  0  0
   -9.5433   18.2987   69.9938 O   0  0  0  0  0  0  0  0  0  0  0  0
   -9.1481   16.2876   65.9124 O   0  0  0  0  0  0  0  0  0  0  0  0
  -10.7304   14.0247   66.8209 C   0  0  0  0  0  0  0  0  0  0  0  0
  -11.1003   13.0895   66.2465 N   0  0  0  0  0  0  0  0  0  0  0  0
   -7.0275   18.2876   67.7219 C   0  0  0  0  0  0  0  0  0  0  0  0
  -10.0126   16.3511   72.1395 C   0  0  0  0  0  0  0  0  0  0  0  0
  -10.4883   16.2212   73.4591 C   0  0  0  0  0  0  0  0  0  0  0  0
  -11.8103   15.8022   73.6966 C   0  0  0  0  0  0  0  0  0  0  0  0
  -12.6594   15.5153   72.6113 C   0  0  0  0  0  0  0  0  0  0  0  0
  -12.1896   15.6561   71.2886 C   0  0  0  0  0  0  0  0  0  0  0  0
  -12.3486   15.5799   75.3255 Cl  0  0  0  0  0  0  0  0  0  0  0  0
   -6.3058   19.3592   66.9157 C   0  0  0  0  0  0  0  0  0  0  0  0
   -4.9894   19.4433   66.9687 C   0  0  0  0  0  0  0  0  0  0  0  0
   -4.2885   20.4306   66.2890 C   0  0  0  0  0  0  0  0  0  0  0  0
   -4.9684   21.5146   65.8589 C   0  0  0  0  0  0  0  0  0  0  0  0
   -4.2174   22.4883   65.1571 C   0  0  0  0  0  0  0  0  0  0  0  0
   -2.8362   22.4197   65.1517 N   0  0  0  0  0  0  0  0  0  0  0  0
   -2.1830   21.3401   65.6702 C   0  0  0  0  0  0  0  0  0  0  0  0
   -2.8591   20.3618   66.3169 C   0  0  0  0  0  0  0  0  0  0  0  0
   -0.8448   21.3456   65.6149 N   0  0  0  0  0  0  0  0  0  0  0  0
  1  2  2  0
  1  6  1  0
  1 11  1  0
  2  3  1  0
  3  4  1  0
  3  7  1  0
  4  9  2  0
  4  5  1  0
  5  6  1  0
  5  8  1  0
  6 10  2  0
  8 13  1  0
 11 12  3  0
 16 19  1  0
 13 20  1  0
 20 21  1  0
 26 28  1  0
 21 22  1  0
 22 23  2  0
 23 24  1  0
 24 25  2  0
 25 26  1  0
 26 27  2  0
 27 22  1  0
  7 18  2  0
 18 17  1  0
 17 16  2  0
 16 15  1  0
 15 14  2  0
 14  7  1  0
M  END

$$$$
No_417-gen_results_new/Mpro_initial_molecule_p3/2024-06-19-20-31-25/
     RDKit          3D

 28 30  0  0  0  0  0  0  0  0999 V2000
  -10.3383   15.1532   67.5971 C   0  0  0  0  0  0  0  0  0  0  0  0
  -10.7220   15.1619   68.8301 N   0  0  0  0  0  0  0  0  0  0  0  0
  -10.4044   16.2024   69.6852 N   0  0  0  0  0  0  0  0  0  0  0  0
   -9.7271   17.3221   69.2607 C   0  0  0  0  0  0  0  0  0  0  0  0
   -9.3095   17.3212   67.9557 N   0  0  0  0  0  0  0  0  0  0  0  0
   -9.5450   16.2958   67.0814 C   0  0  0  0  0  0  0  0  0  0  0  0
  -10.8644   16.0907   71.0374 C   0  0  0  0  0  0  0  0  0  0  0  0
   -8.5330   18.4792   67.4604 C   0  0  0  0  0  0  0  0  0  0  0  0
   -9.5433   18.2987   69.9938 O   0  0  0  0  0  0  0  0  0  0  0  0
   -9.1481   16.2876   65.9124 O   0  0  0  0  0  0  0  0  0  0  0  0
  -10.7304   14.0247   66.8209 C   0  0  0  0  0  0  0  0  0  0  0  0
  -11.1003   13.0895   66.2465 N   0  0  0  0  0  0  0  0  0  0  0  0
   -7.0275   18.2876   67.7219 C   0  0  0  0  0  0  0  0  0  0  0  0
  -10.0126   16.3511   72.1395 C   0  0  0  0  0  0  0  0  0  0  0  0
  -10.4883   16.2212   73.4591 C   0  0  0  0  0  0  0  0  0  0  0  0
  -11.8103   15.8022   73.6966 C   0  0  0  0  0  0  0  0  0  0  0  0
  -12.6594   15.5153   72.6113 C   0  0  0  0  0  0  0  0  0  0  0  0
  -12.1896   15.6561   71.2886 C   0  0  0  0  0  0  0  0  0  0  0  0
  -12.3486   15.5799   75.3255 Cl  0  0  0  0  0  0  0  0  0  0  0  0
   -6.5344   17.3734   68.3696 C   0  0  0  0  0  0  0  0  0  0  0  0
   -5.1310   17.1884   68.5570 C   0  0  0  0  0  0  0  0  0  0  0  0
   -6.3132   19.4044   67.2937 C   0  0  0  0  0  0  0  0  0  0  0  0
   -4.9038   19.2886   67.4758 C   0  0  0  0  0  0  0  0  0  0  0  0
   -4.3512   18.1958   68.1015 C   0  0  0  0  0  0  0  0  0  0  0  0
   -4.0545   20.4399   67.0433 C   0  0  0  0  0  0  0  0  0  0  0  0
   -3.8740   20.6517   65.8043 N   0  0  0  0  0  0  0  0  0  0  0  0
   -4.3472   20.0760   64.8307 C   0  0  0  0  0  0  0  0  0  0  0  0
   -5.2264   20.6133   63.9385 C   0  0  0  0  0  0  0  0  0  0  0  0
  1  2  2  0
  1  6  1  0
  1 11  1  0
  2  3  1  0
  3  4  1  0
  3  7  1  0
  4  9  2  0
  4  5  1  0
  5  6  1  0
  5  8  1  0
  6 10  2  0
  8 13  1  0
 11 12  3  0
 16 19  1  0
 23 25  1  0
 25 26  1  0
 26 27  1  0
 27 28  1  0
 13 20  2  0
 20 21  1  0
 21 24  2  0
 24 23  1  0
 23 22  2  0
 22 13  1  0
  7 18  2  0
 18 17  1  0
 17 16  2  0
 16 15  1  0
 15 14  2  0
 14  7  1  0
M  END

$$$$
No_418-gen_results_new/Mpro_initial_molecule_p3/2024-06-19-20-31-25/
     RDKit          3D

 28 30  0  0  0  0  0  0  0  0999 V2000
  -10.3383   15.1532   67.5971 C   0  0  0  0  0  0  0  0  0  0  0  0
  -10.7220   15.1619   68.8301 N   0  0  0  0  0  0  0  0  0  0  0  0
  -10.4044   16.2024   69.6852 N   0  0  0  0  0  0  0  0  0  0  0  0
   -9.7271   17.3221   69.2607 C   0  0  0  0  0  0  0  0  0  0  0  0
   -9.3095   17.3212   67.9557 N   0  0  0  0  0  0  0  0  0  0  0  0
   -9.5450   16.2958   67.0814 C   0  0  0  0  0  0  0  0  0  0  0  0
  -10.8644   16.0907   71.0374 C   0  0  0  0  0  0  0  0  0  0  0  0
   -8.5330   18.4792   67.4604 C   0  0  0  0  0  0  0  0  0  0  0  0
   -9.5433   18.2987   69.9938 O   0  0  0  0  0  0  0  0  0  0  0  0
   -9.1481   16.2876   65.9124 O   0  0  0  0  0  0  0  0  0  0  0  0
  -10.7304   14.0247   66.8209 C   0  0  0  0  0  0  0  0  0  0  0  0
  -11.1003   13.0895   66.2465 N   0  0  0  0  0  0  0  0  0  0  0  0
   -7.0275   18.2876   67.7219 C   0  0  0  0  0  0  0  0  0  0  0  0
  -10.0126   16.3511   72.1395 C   0  0  0  0  0  0  0  0  0  0  0  0
  -10.4883   16.2212   73.4591 C   0  0  0  0  0  0  0  0  0  0  0  0
  -11.8103   15.8022   73.6966 C   0  0  0  0  0  0  0  0  0  0  0  0
  -12.6594   15.5153   72.6113 C   0  0  0  0  0  0  0  0  0  0  0  0
  -12.1896   15.6561   71.2886 C   0  0  0  0  0  0  0  0  0  0  0  0
  -12.3486   15.5799   75.3255 Cl  0  0  0  0  0  0  0  0  0  0  0  0
   -6.4523   19.3079   67.8835 C   0  0  0  0  0  0  0  0  0  0  0  0
   -6.2543   20.3848   67.0158 C   0  0  0  0  0  0  0  0  0  0  0  0
   -7.6328   20.5650   66.3045 C   0  0  0  0  0  0  0  0  0  0  0  0
   -8.7542   19.5965   66.5568 C   0  0  0  0  0  0  0  0  0  0  0  0
   -5.4234   21.2892   66.7551 O   0  0  0  0  0  0  0  0  0  0  0  0
  -14.0293   15.0123   72.7868 O   0  0  0  0  0  0  0  0  0  0  0  0
   -4.9161   21.4967   65.4835 C   0  0  0  0  0  0  0  0  0  0  0  0
   -3.7698   20.7145   65.2441 C   0  0  0  0  0  0  0  0  0  0  0  0
   -2.7383   20.7268   66.0210 C   0  0  0  0  0  0  0  0  0  0  0  0
  1  2  2  0
  1  6  1  0
  1 11  1  0
  2  3  1  0
  3  4  1  0
  3  7  1  0
  4  9  2  0
  4  5  1  0
  5  6  1  0
  5  8  1  0
  6 10  2  0
 11 12  3  0
 16 19  1  0
 21 24  1  0
 17 25  1  0
 24 26  1  0
 26 27  1  0
 27 28  1  0
  8 13  2  0
 13 20  1  0
 20 21  2  0
 21 22  1  0
 22 23  2  0
 23  8  1  0
  7 18  2  0
 18 17  1  0
 17 16  2  0
 16 15  1  0
 15 14  2  0
 14  7  1  0
M  END

$$$$
No_419-gen_results_new/Mpro_initial_molecule_p3/2024-06-19-20-31-25/
     RDKit          3D

 28 30  0  0  0  0  0  0  0  0999 V2000
  -10.3383   15.1532   67.5971 C   0  0  0  0  0  0  0  0  0  0  0  0
  -10.7220   15.1619   68.8301 N   0  0  0  0  0  0  0  0  0  0  0  0
  -10.4044   16.2024   69.6852 N   0  0  0  0  0  0  0  0  0  0  0  0
   -9.7271   17.3221   69.2607 C   0  0  0  0  0  0  0  0  0  0  0  0
   -9.3095   17.3212   67.9557 N   0  0  0  0  0  0  0  0  0  0  0  0
   -9.5450   16.2958   67.0814 C   0  0  0  0  0  0  0  0  0  0  0  0
  -10.8644   16.0907   71.0374 C   0  0  0  0  0  0  0  0  0  0  0  0
   -8.5330   18.4792   67.4604 C   0  0  0  0  0  0  0  0  0  0  0  0
   -9.5433   18.2987   69.9938 O   0  0  0  0  0  0  0  0  0  0  0  0
   -9.1481   16.2876   65.9124 O   0  0  0  0  0  0  0  0  0  0  0  0
  -10.7304   14.0247   66.8209 C   0  0  0  0  0  0  0  0  0  0  0  0
  -11.1003   13.0895   66.2465 N   0  0  0  0  0  0  0  0  0  0  0  0
   -7.0275   18.2876   67.7219 C   0  0  0  0  0  0  0  0  0  0  0  0
  -10.0126   16.3511   72.1395 C   0  0  0  0  0  0  0  0  0  0  0  0
  -10.4883   16.2212   73.4591 C   0  0  0  0  0  0  0  0  0  0  0  0
  -11.8103   15.8022   73.6966 C   0  0  0  0  0  0  0  0  0  0  0  0
  -12.6594   15.5153   72.6113 C   0  0  0  0  0  0  0  0  0  0  0  0
  -12.1896   15.6561   71.2886 C   0  0  0  0  0  0  0  0  0  0  0  0
  -12.2484   15.6088   75.0145 O   0  0  0  0  0  0  0  0  0  0  0  0
   -6.5341   17.3731   68.3686 C   0  0  0  0  0  0  0  0  0  0  0  0
   -5.1247   17.1828   68.5818 C   0  0  0  0  0  0  0  0  0  0  0  0
   -4.4393   18.0516   67.8375 C   0  0  0  0  0  0  0  0  0  0  0  0
   -4.8689   19.0477   67.0691 C   0  0  0  0  0  0  0  0  0  0  0  0
   -6.2627   19.1642   66.9258 C   0  0  0  0  0  0  0  0  0  0  0  0
  -12.3371   16.7920   75.7212 C   0  0  0  0  0  0  0  0  0  0  0  0
  -13.9744   14.9540   72.7919 O   0  0  0  0  0  0  0  0  0  0  0  0
   -4.0589   19.9373   66.3743 N   0  0  0  0  0  0  0  0  0  0  0  0
   -4.3283   21.1967   66.3268 C   0  0  0  0  0  0  0  0  0  0  0  0
  1  2  2  0
  1  6  1  0
  1 11  1  0
  2  3  1  0
  3  4  1  0
  3  7  1  0
  4  9  2  0
  4  5  1  0
  5  6  1  0
  5  8  1  0
  6 10  2  0
  8 13  1  0
 11 12  3  0
 16 19  1  0
 19 25  1  0
 17 26  1  0
 23 27  1  0
 27 28  1  0
 13 20  2  0
 20 21  1  0
 21 22  2  0
 22 23  1  0
 23 24  2  0
 24 13  1  0
  7 18  2  0
 18 17  1  0
 17 16  2  0
 16 15  1  0
 15 14  2  0
 14  7  1  0
M  END

$$$$
No_420-gen_results_new/Mpro_initial_molecule_p3/2024-06-19-20-31-25/
     RDKit          3D

 28 30  0  0  0  0  0  0  0  0999 V2000
  -10.3383   15.1532   67.5971 C   0  0  0  0  0  0  0  0  0  0  0  0
  -10.7220   15.1619   68.8301 N   0  0  0  0  0  0  0  0  0  0  0  0
  -10.4044   16.2024   69.6852 N   0  0  0  0  0  0  0  0  0  0  0  0
   -9.7271   17.3221   69.2607 C   0  0  0  0  0  0  0  0  0  0  0  0
   -9.3095   17.3212   67.9557 N   0  0  0  0  0  0  0  0  0  0  0  0
   -9.5450   16.2958   67.0814 C   0  0  0  0  0  0  0  0  0  0  0  0
  -10.8644   16.0907   71.0374 C   0  0  0  0  0  0  0  0  0  0  0  0
   -8.5330   18.4792   67.4604 C   0  0  0  0  0  0  0  0  0  0  0  0
   -9.5433   18.2987   69.9938 O   0  0  0  0  0  0  0  0  0  0  0  0
   -9.1481   16.2876   65.9124 O   0  0  0  0  0  0  0  0  0  0  0  0
  -10.7304   14.0247   66.8209 C   0  0  0  0  0  0  0  0  0  0  0  0
  -11.1003   13.0895   66.2465 N   0  0  0  0  0  0  0  0  0  0  0  0
   -7.0275   18.2876   67.7219 C   0  0  0  0  0  0  0  0  0  0  0  0
  -10.0126   16.3511   72.1395 C   0  0  0  0  0  0  0  0  0  0  0  0
  -10.4883   16.2212   73.4591 C   0  0  0  0  0  0  0  0  0  0  0  0
  -11.8103   15.8022   73.6966 C   0  0  0  0  0  0  0  0  0  0  0  0
  -12.6594   15.5153   72.6113 C   0  0  0  0  0  0  0  0  0  0  0  0
  -12.1896   15.6561   71.2886 C   0  0  0  0  0  0  0  0  0  0  0  0
  -12.2768   15.6000   75.1088 C   0  0  0  0  0  0  0  0  0  0  0  0
   -6.5341   17.3729   68.3685 C   0  0  0  0  0  0  0  0  0  0  0  0
   -5.1308   17.1882   68.5568 C   0  0  0  0  0  0  0  0  0  0  0  0
   -6.2282   19.1886   66.9092 C   0  0  0  0  0  0  0  0  0  0  0  0
   -6.7792   20.1375   66.1299 F   0  0  0  0  0  0  0  0  0  0  0  0
   -4.8616   19.0262   66.9952 C   0  0  0  0  0  0  0  0  0  0  0  0
   -4.4851   16.0744   69.3535 C   0  0  0  0  0  0  0  0  0  0  0  0
   -4.3491   18.0034   67.7817 C   0  0  0  0  0  0  0  0  0  0  0  0
  -12.3538   14.5930   75.5994 O   0  0  0  0  0  0  0  0  0  0  0  0
  -12.8116   16.6661   75.6554 O   0  0  0  0  0  0  0  0  0  0  0  0
  1  2  2  0
  1  6  1  0
  1 11  1  0
  2  3  1  0
  3  4  1  0
  3  7  1  0
  4  9  2  0
  4  5  1  0
  5  6  1  0
  5  8  1  0
  6 10  2  0
  8 13  1  0
 11 12  3  0
 16 19  1  0
 22 23  1  0
 21 25  1  0
 19 27  2  0
 19 28  1  0
 13 20  2  0
 20 21  1  0
 21 26  2  0
 26 24  1  0
 24 22  2  0
 22 13  1  0
  7 18  2  0
 18 17  1  0
 17 16  2  0
 16 15  1  0
 15 14  2  0
 14  7  1  0
M  END

$$$$
No_421-gen_results_new/Mpro_initial_molecule_p3/2024-06-19-20-31-25/
     RDKit          3D

 28 30  0  0  0  0  0  0  0  0999 V2000
  -10.3383   15.1532   67.5971 C   0  0  0  0  0  0  0  0  0  0  0  0
  -10.7220   15.1619   68.8301 N   0  0  0  0  0  0  0  0  0  0  0  0
  -10.4044   16.2024   69.6852 N   0  0  0  0  0  0  0  0  0  0  0  0
   -9.7271   17.3221   69.2607 C   0  0  0  0  0  0  0  0  0  0  0  0
   -9.3095   17.3212   67.9557 N   0  0  0  0  0  0  0  0  0  0  0  0
   -9.5450   16.2958   67.0814 C   0  0  0  0  0  0  0  0  0  0  0  0
  -10.8644   16.0907   71.0374 C   0  0  0  0  0  0  0  0  0  0  0  0
   -8.5330   18.4792   67.4604 C   0  0  0  0  0  0  0  0  0  0  0  0
   -9.5433   18.2987   69.9938 O   0  0  0  0  0  0  0  0  0  0  0  0
   -9.1481   16.2876   65.9124 O   0  0  0  0  0  0  0  0  0  0  0  0
  -10.7304   14.0247   66.8209 C   0  0  0  0  0  0  0  0  0  0  0  0
  -11.1003   13.0895   66.2465 N   0  0  0  0  0  0  0  0  0  0  0  0
   -7.0275   18.2876   67.7219 C   0  0  0  0  0  0  0  0  0  0  0  0
  -10.0126   16.3511   72.1395 C   0  0  0  0  0  0  0  0  0  0  0  0
  -10.4883   16.2212   73.4591 C   0  0  0  0  0  0  0  0  0  0  0  0
  -11.8103   15.8022   73.6966 C   0  0  0  0  0  0  0  0  0  0  0  0
  -12.6594   15.5153   72.6113 C   0  0  0  0  0  0  0  0  0  0  0  0
  -12.1896   15.6561   71.2886 C   0  0  0  0  0  0  0  0  0  0  0  0
  -12.2768   15.6000   75.1088 C   0  0  0  0  0  0  0  0  0  0  0  0
   -6.5341   17.3729   68.3685 C   0  0  0  0  0  0  0  0  0  0  0  0
   -5.1308   17.1882   68.5568 C   0  0  0  0  0  0  0  0  0  0  0  0
   -6.2282   19.1886   66.9092 C   0  0  0  0  0  0  0  0  0  0  0  0
   -6.7792   20.1375   66.1299 F   0  0  0  0  0  0  0  0  0  0  0  0
   -4.8616   19.0262   66.9952 C   0  0  0  0  0  0  0  0  0  0  0  0
   -4.3130   17.9865   67.7493 C   0  0  0  0  0  0  0  0  0  0  0  0
  -12.5813   16.5943   75.6961 O   0  0  0  0  0  0  0  0  0  0  0  0
  -12.1190   14.5201   75.5995 O   0  0  0  0  0  0  0  0  0  0  0  0
   -4.6262   16.1473   69.3420 O   0  0  0  0  0  0  0  0  0  0  0  0
  1  2  2  0
  1  6  1  0
  1 11  1  0
  2  3  1  0
  3  4  1  0
  3  7  1  0
  4  9  2  0
  4  5  1  0
  5  6  1  0
  5  8  1  0
  6 10  2  0
  8 13  1  0
 11 12  3  0
 16 19  1  0
 22 23  1  0
 19 26  2  0
 19 27  1  0
 21 28  1  0
 13 20  2  0
 20 21  1  0
 21 25  2  0
 25 24  1  0
 24 22  2  0
 22 13  1  0
  7 18  2  0
 18 17  1  0
 17 16  2  0
 16 15  1  0
 15 14  2  0
 14  7  1  0
M  END

$$$$
No_422-gen_results_new/Mpro_initial_molecule_p3/2024-06-19-20-31-25/
     RDKit          3D

 28 29  0  0  0  0  0  0  0  0999 V2000
  -10.3383   15.1532   67.5971 C   0  0  0  0  0  0  0  0  0  0  0  0
  -10.7220   15.1619   68.8301 N   0  0  0  0  0  0  0  0  0  0  0  0
  -10.4044   16.2024   69.6852 N   0  0  0  0  0  0  0  0  0  0  0  0
   -9.7271   17.3221   69.2607 C   0  0  0  0  0  0  0  0  0  0  0  0
   -9.3095   17.3212   67.9557 N   0  0  0  0  0  0  0  0  0  0  0  0
   -9.5450   16.2958   67.0814 C   0  0  0  0  0  0  0  0  0  0  0  0
  -10.8644   16.0907   71.0374 C   0  0  0  0  0  0  0  0  0  0  0  0
   -8.5330   18.4792   67.4604 C   0  0  0  0  0  0  0  0  0  0  0  0
   -9.5433   18.2987   69.9938 O   0  0  0  0  0  0  0  0  0  0  0  0
   -9.1481   16.2876   65.9124 O   0  0  0  0  0  0  0  0  0  0  0  0
  -10.7304   14.0247   66.8209 C   0  0  0  0  0  0  0  0  0  0  0  0
  -11.1003   13.0895   66.2465 N   0  0  0  0  0  0  0  0  0  0  0  0
   -7.0275   18.2876   67.7219 C   0  0  0  0  0  0  0  0  0  0  0  0
  -10.0126   16.3511   72.1395 C   0  0  0  0  0  0  0  0  0  0  0  0
  -10.4883   16.2212   73.4591 C   0  0  0  0  0  0  0  0  0  0  0  0
  -11.8103   15.8022   73.6966 C   0  0  0  0  0  0  0  0  0  0  0  0
  -12.6594   15.5153   72.6113 C   0  0  0  0  0  0  0  0  0  0  0  0
  -12.1896   15.6561   71.2886 C   0  0  0  0  0  0  0  0  0  0  0  0
  -12.2768   15.6000   75.1088 C   0  0  0  0  0  0  0  0  0  0  0  0
   -6.5556   17.2014   67.9036 O   0  0  0  0  0  0  0  0  0  0  0  0
   -6.3088   19.3657   67.4560 N   0  0  0  0  0  0  0  0  0  0  0  0
  -12.6558   14.5410   75.4432 F   0  0  0  0  0  0  0  0  0  0  0  0
  -13.1190   16.6082   75.4026 F   0  0  0  0  0  0  0  0  0  0  0  0
  -11.2615   15.8369   75.9947 F   0  0  0  0  0  0  0  0  0  0  0  0
   -4.9202   19.4056   67.5578 C   0  0  0  0  0  0  0  0  0  0  0  0
   -4.4095   19.6698   68.7747 C   0  0  0  0  0  0  0  0  0  0  0  0
   -4.9548   19.6633   70.0895 C   0  0  0  0  0  0  0  0  0  0  0  0
   -4.2653   19.9707   71.2107 C   0  0  0  0  0  0  0  0  0  0  0  0
  1  2  2  0
  1  6  1  0
  1 11  1  0
  2  3  1  0
  3  4  1  0
  3  7  1  0
  4  9  2  0
  4  5  1  0
  5  6  1  0
  5  8  1  0
  6 10  2  0
  8 13  1  0
 11 12  3  0
 16 19  1  0
 13 20  2  0
 13 21  1  0
 19 22  1  0
 19 23  1  0
 19 24  1  0
 21 25  1  0
 25 26  1  0
 26 27  1  0
 27 28  1  0
  7 18  2  0
 18 17  1  0
 17 16  2  0
 16 15  1  0
 15 14  2  0
 14  7  1  0
M  END

$$$$
No_423-gen_results_new/Mpro_initial_molecule_p3/2024-06-19-20-31-25/
     RDKit          3D

 28 30  0  0  0  0  0  0  0  0999 V2000
  -10.3383   15.1532   67.5971 C   0  0  0  0  0  0  0  0  0  0  0  0
  -10.7220   15.1619   68.8301 N   0  0  0  0  0  0  0  0  0  0  0  0
  -10.4044   16.2024   69.6852 N   0  0  0  0  0  0  0  0  0  0  0  0
   -9.7271   17.3221   69.2607 C   0  0  0  0  0  0  0  0  0  0  0  0
   -9.3095   17.3212   67.9557 N   0  0  0  0  0  0  0  0  0  0  0  0
   -9.5450   16.2958   67.0814 C   0  0  0  0  0  0  0  0  0  0  0  0
  -10.8644   16.0907   71.0374 C   0  0  0  0  0  0  0  0  0  0  0  0
   -8.5330   18.4792   67.4604 C   0  0  0  0  0  0  0  0  0  0  0  0
   -9.5433   18.2987   69.9938 O   0  0  0  0  0  0  0  0  0  0  0  0
   -9.1481   16.2876   65.9124 O   0  0  0  0  0  0  0  0  0  0  0  0
  -10.7304   14.0247   66.8209 C   0  0  0  0  0  0  0  0  0  0  0  0
  -11.1003   13.0895   66.2465 N   0  0  0  0  0  0  0  0  0  0  0  0
   -7.0275   18.2876   67.7219 C   0  0  0  0  0  0  0  0  0  0  0  0
  -10.0126   16.3511   72.1395 C   0  0  0  0  0  0  0  0  0  0  0  0
  -10.4883   16.2212   73.4591 C   0  0  0  0  0  0  0  0  0  0  0  0
  -11.8103   15.8022   73.6966 C   0  0  0  0  0  0  0  0  0  0  0  0
  -12.6594   15.5153   72.6113 C   0  0  0  0  0  0  0  0  0  0  0  0
  -12.1896   15.6561   71.2886 C   0  0  0  0  0  0  0  0  0  0  0  0
  -12.3486   15.5799   75.3255 Cl  0  0  0  0  0  0  0  0  0  0  0  0
   -6.5344   17.3734   68.3696 C   0  0  0  0  0  0  0  0  0  0  0  0
   -5.1249   17.1828   68.5820 C   0  0  0  0  0  0  0  0  0  0  0  0
   -4.4394   18.0509   67.8370 C   0  0  0  0  0  0  0  0  0  0  0  0
   -4.8688   19.0466   67.0682 C   0  0  0  0  0  0  0  0  0  0  0  0
   -6.2626   19.1636   66.9253 C   0  0  0  0  0  0  0  0  0  0  0  0
  -13.9945   15.0201   72.7823 F   0  0  0  0  0  0  0  0  0  0  0  0
   -4.0588   19.9361   66.3731 N   0  0  0  0  0  0  0  0  0  0  0  0
   -2.7775   19.7972   66.4975 C   0  0  0  0  0  0  0  0  0  0  0  0
   -4.5351   21.1394   65.6220 C   0  0  0  0  0  0  0  0  0  0  0  0
  1  2  2  0
  1  6  1  0
  1 11  1  0
  2  3  1  0
  3  4  1  0
  3  7  1  0
  4  9  2  0
  4  5  1  0
  5  6  1  0
  5  8  1  0
  6 10  2  0
  8 13  1  0
 11 12  3  0
 16 19  1  0
 17 25  1  0
 23 26  1  0
 26 27  1  0
 26 28  1  0
 13 20  2  0
 20 21  1  0
 21 22  2  0
 22 23  1  0
 23 24  2  0
 24 13  1  0
  7 18  2  0
 18 17  1  0
 17 16  2  0
 16 15  1  0
 15 14  2  0
 14  7  1  0
M  END

$$$$
No_424-gen_results_new/Mpro_initial_molecule_p3/2024-06-19-20-31-25/
     RDKit          3D

 25 27  0  0  0  0  0  0  0  0999 V2000
  -10.3383   15.1532   67.5971 C   0  0  0  0  0  0  0  0  0  0  0  0
  -10.7220   15.1619   68.8301 N   0  0  0  0  0  0  0  0  0  0  0  0
  -10.4044   16.2024   69.6852 N   0  0  0  0  0  0  0  0  0  0  0  0
   -9.7271   17.3221   69.2607 C   0  0  0  0  0  0  0  0  0  0  0  0
   -9.3095   17.3212   67.9557 N   0  0  0  0  0  0  0  0  0  0  0  0
   -9.5450   16.2958   67.0814 C   0  0  0  0  0  0  0  0  0  0  0  0
  -10.8644   16.0907   71.0374 C   0  0  0  0  0  0  0  0  0  0  0  0
   -8.5330   18.4792   67.4604 C   0  0  0  0  0  0  0  0  0  0  0  0
   -9.5433   18.2987   69.9938 O   0  0  0  0  0  0  0  0  0  0  0  0
   -9.1481   16.2876   65.9124 O   0  0  0  0  0  0  0  0  0  0  0  0
  -10.7304   14.0247   66.8209 C   0  0  0  0  0  0  0  0  0  0  0  0
  -11.1003   13.0895   66.2465 N   0  0  0  0  0  0  0  0  0  0  0  0
   -7.0275   18.2876   67.7219 C   0  0  0  0  0  0  0  0  0  0  0  0
  -10.0126   16.3511   72.1395 C   0  0  0  0  0  0  0  0  0  0  0  0
  -10.4883   16.2212   73.4591 C   0  0  0  0  0  0  0  0  0  0  0  0
  -11.8103   15.8022   73.6966 C   0  0  0  0  0  0  0  0  0  0  0  0
  -12.6594   15.5153   72.6113 C   0  0  0  0  0  0  0  0  0  0  0  0
  -12.1896   15.6561   71.2886 C   0  0  0  0  0  0  0  0  0  0  0  0
  -12.3486   15.5799   75.3255 Cl  0  0  0  0  0  0  0  0  0  0  0  0
   -6.5344   17.3734   68.3696 C   0  0  0  0  0  0  0  0  0  0  0  0
   -5.1249   17.1828   68.5820 C   0  0  0  0  0  0  0  0  0  0  0  0
   -4.3548   17.9831   67.7399 N   0  0  0  0  0  0  0  0  0  0  0  0
   -6.0931   18.9924   66.9428 C   0  0  0  0  0  0  0  0  0  0  0  0
   -6.7050   20.2301   65.8676 Cl  0  0  0  0  0  0  0  0  0  0  0  0
   -4.7987   18.8559   67.0071 C   0  0  0  0  0  0  0  0  0  0  0  0
  1  2  2  0
  1  6  1  0
  1 11  1  0
  2  3  1  0
  3  4  1  0
  3  7  1  0
  4  9  2  0
  4  5  1  0
  5  6  1  0
  5  8  1  0
  6 10  2  0
  8 13  1  0
 11 12  3  0
 16 19  1  0
 23 24  1  0
 13 20  2  0
 20 21  1  0
 21 22  2  0
 22 25  1  0
 25 23  2  0
 23 13  1  0
  7 18  2  0
 18 17  1  0
 17 16  2  0
 16 15  1  0
 15 14  2  0
 14  7  1  0
M  END

$$$$
No_425-gen_results_new/Mpro_initial_molecule_p3/2024-06-19-20-31-25/
     RDKit          3D

 28 30  0  0  0  0  0  0  0  0999 V2000
  -10.3383   15.1532   67.5971 C   0  0  0  0  0  0  0  0  0  0  0  0
  -10.7220   15.1619   68.8301 N   0  0  0  0  0  0  0  0  0  0  0  0
  -10.4044   16.2024   69.6852 N   0  0  0  0  0  0  0  0  0  0  0  0
   -9.7271   17.3221   69.2607 C   0  0  0  0  0  0  0  0  0  0  0  0
   -9.3095   17.3212   67.9557 N   0  0  0  0  0  0  0  0  0  0  0  0
   -9.5450   16.2958   67.0814 C   0  0  0  0  0  0  0  0  0  0  0  0
  -10.8644   16.0907   71.0374 C   0  0  0  0  0  0  0  0  0  0  0  0
   -8.5330   18.4792   67.4604 C   0  0  0  0  0  0  0  0  0  0  0  0
   -9.5433   18.2987   69.9938 O   0  0  0  0  0  0  0  0  0  0  0  0
   -9.1481   16.2876   65.9124 O   0  0  0  0  0  0  0  0  0  0  0  0
  -10.7304   14.0247   66.8209 C   0  0  0  0  0  0  0  0  0  0  0  0
  -11.1003   13.0895   66.2465 N   0  0  0  0  0  0  0  0  0  0  0  0
   -7.0275   18.2876   67.7219 C   0  0  0  0  0  0  0  0  0  0  0  0
  -10.0126   16.3511   72.1395 C   0  0  0  0  0  0  0  0  0  0  0  0
  -10.4883   16.2212   73.4591 C   0  0  0  0  0  0  0  0  0  0  0  0
  -11.8103   15.8022   73.6966 C   0  0  0  0  0  0  0  0  0  0  0  0
  -12.6594   15.5153   72.6113 C   0  0  0  0  0  0  0  0  0  0  0  0
  -12.1896   15.6561   71.2886 C   0  0  0  0  0  0  0  0  0  0  0  0
  -12.3486   15.5799   75.3255 Cl  0  0  0  0  0  0  0  0  0  0  0  0
   -6.5558   17.2018   67.9045 O   0  0  0  0  0  0  0  0  0  0  0  0
   -6.2800   19.2224   67.1755 N   0  0  0  0  0  0  0  0  0  0  0  0
   -5.1947   19.6532   66.9554 C   0  0  0  0  0  0  0  0  0  0  0  0
   -4.3788   19.9345   68.0509 C   0  0  0  0  0  0  0  0  0  0  0  0
   -2.9316   20.1296   67.8244 C   0  0  0  0  0  0  0  0  0  0  0  0
   -2.3933   20.0386   66.6079 C   0  0  0  0  0  0  0  0  0  0  0  0
   -1.1609   20.1613   66.4745 F   0  0  0  0  0  0  0  0  0  0  0  0
   -4.5599   19.5051   65.7490 C   0  0  0  0  0  0  0  0  0  0  0  0
   -3.1679   19.6455   65.5612 C   0  0  0  0  0  0  0  0  0  0  0  0
  1  2  2  0
  1  6  1  0
  1 11  1  0
  2  3  1  0
  3  4  1  0
  3  7  1  0
  4  9  2  0
  4  5  1  0
  5  6  1  0
  5  8  1  0
  6 10  2  0
  8 13  1  0
 11 12  3  0
 16 19  1  0
 13 20  2  0
 13 21  1  0
 21 22  1  0
 25 26  1  0
 22 23  2  0
 23 24  1  0
 24 25  2  0
 25 28  1  0
 28 27  2  0
 27 22  1  0
  7 18  2  0
 18 17  1  0
 17 16  2  0
 16 15  1  0
 15 14  2  0
 14  7  1  0
M  END

$$$$
No_426-gen_results_new/Mpro_initial_molecule_p3/2024-06-19-20-31-25/
     RDKit          3D

 28 30  0  0  0  0  0  0  0  0999 V2000
  -10.3383   15.1532   67.5971 C   0  0  0  0  0  0  0  0  0  0  0  0
  -10.7220   15.1619   68.8301 N   0  0  0  0  0  0  0  0  0  0  0  0
  -10.4044   16.2024   69.6852 N   0  0  0  0  0  0  0  0  0  0  0  0
   -9.7271   17.3221   69.2607 C   0  0  0  0  0  0  0  0  0  0  0  0
   -9.3095   17.3212   67.9557 N   0  0  0  0  0  0  0  0  0  0  0  0
   -9.5450   16.2958   67.0814 C   0  0  0  0  0  0  0  0  0  0  0  0
  -10.8644   16.0907   71.0374 C   0  0  0  0  0  0  0  0  0  0  0  0
   -8.5330   18.4792   67.4604 C   0  0  0  0  0  0  0  0  0  0  0  0
   -9.5433   18.2987   69.9938 O   0  0  0  0  0  0  0  0  0  0  0  0
   -9.1481   16.2876   65.9124 O   0  0  0  0  0  0  0  0  0  0  0  0
  -10.7304   14.0247   66.8209 C   0  0  0  0  0  0  0  0  0  0  0  0
  -11.1003   13.0895   66.2465 N   0  0  0  0  0  0  0  0  0  0  0  0
   -7.0275   18.2876   67.7219 C   0  0  0  0  0  0  0  0  0  0  0  0
  -10.0126   16.3511   72.1395 C   0  0  0  0  0  0  0  0  0  0  0  0
  -10.4883   16.2212   73.4591 C   0  0  0  0  0  0  0  0  0  0  0  0
  -11.8103   15.8022   73.6966 C   0  0  0  0  0  0  0  0  0  0  0  0
  -12.6594   15.5153   72.6113 C   0  0  0  0  0  0  0  0  0  0  0  0
  -12.1896   15.6561   71.2886 C   0  0  0  0  0  0  0  0  0  0  0  0
  -12.2768   15.6000   75.1088 C   0  0  0  0  0  0  0  0  0  0  0  0
   -6.4522   19.3092   67.8826 C   0  0  0  0  0  0  0  0  0  0  0  0
  -12.5808   16.5955   75.6954 O   0  0  0  0  0  0  0  0  0  0  0  0
  -12.1193   14.5206   75.6006 O   0  0  0  0  0  0  0  0  0  0  0  0
   -4.9617   19.3659   67.8974 C   0  0  0  0  0  0  0  0  0  0  0  0
   -4.3066   18.1827   67.7003 C   0  0  0  0  0  0  0  0  0  0  0  0
   -5.0535   16.9672   67.4674 C   0  0  0  0  0  0  0  0  0  0  0  0
   -6.4950   17.0421   67.4093 C   0  0  0  0  0  0  0  0  0  0  0  0
   -4.2966   20.4595   68.1987 F   0  0  0  0  0  0  0  0  0  0  0  0
  -13.9440   15.0288   72.8016 F   0  0  0  0  0  0  0  0  0  0  0  0
  1  2  2  0
  1  6  1  0
  1 11  1  0
  2  3  1  0
  3  4  1  0
  3  7  1  0
  4  9  2  0
  4  5  1  0
  5  6  1  0
  5  8  1  0
  6 10  2  0
  8 13  1  0
 11 12  3  0
 16 19  1  0
 19 21  2  0
 19 22  1  0
 23 27  1  0
 17 28  1  0
 13 20  2  0
 20 23  1  0
 23 24  2  0
 24 25  1  0
 25 26  2  0
 26 13  1  0
  7 18  2  0
 18 17  1  0
 17 16  2  0
 16 15  1  0
 15 14  2  0
 14  7  1  0
M  END

$$$$
No_427-gen_results_new/Mpro_initial_molecule_p3/2024-06-19-20-31-25/
     RDKit          3D

 28 30  0  0  0  0  0  0  0  0999 V2000
  -10.3383   15.1532   67.5971 C   0  0  0  0  0  0  0  0  0  0  0  0
  -10.7220   15.1619   68.8301 N   0  0  0  0  0  0  0  0  0  0  0  0
  -10.4044   16.2024   69.6852 N   0  0  0  0  0  0  0  0  0  0  0  0
   -9.7271   17.3221   69.2607 C   0  0  0  0  0  0  0  0  0  0  0  0
   -9.3095   17.3212   67.9557 N   0  0  0  0  0  0  0  0  0  0  0  0
   -9.5450   16.2958   67.0814 C   0  0  0  0  0  0  0  0  0  0  0  0
  -10.8644   16.0907   71.0374 C   0  0  0  0  0  0  0  0  0  0  0  0
   -8.5330   18.4792   67.4604 C   0  0  0  0  0  0  0  0  0  0  0  0
   -9.5433   18.2987   69.9938 O   0  0  0  0  0  0  0  0  0  0  0  0
   -9.1481   16.2876   65.9124 O   0  0  0  0  0  0  0  0  0  0  0  0
  -10.7304   14.0247   66.8209 C   0  0  0  0  0  0  0  0  0  0  0  0
  -11.1003   13.0895   66.2465 N   0  0  0  0  0  0  0  0  0  0  0  0
   -7.0275   18.2876   67.7219 C   0  0  0  0  0  0  0  0  0  0  0  0
  -10.0126   16.3511   72.1395 C   0  0  0  0  0  0  0  0  0  0  0  0
  -10.4883   16.2212   73.4591 C   0  0  0  0  0  0  0  0  0  0  0  0
  -11.8103   15.8022   73.6966 C   0  0  0  0  0  0  0  0  0  0  0  0
  -12.6594   15.5153   72.6113 C   0  0  0  0  0  0  0  0  0  0  0  0
  -12.1896   15.6561   71.2886 C   0  0  0  0  0  0  0  0  0  0  0  0
  -12.3486   15.5799   75.3255 Cl  0  0  0  0  0  0  0  0  0  0  0  0
   -6.5344   17.3734   68.3696 C   0  0  0  0  0  0  0  0  0  0  0  0
   -5.2054   17.6254   68.8146 C   0  0  0  0  0  0  0  0  0  0  0  0
   -4.3973   18.3723   68.1960 C   0  0  0  0  0  0  0  0  0  0  0  0
   -4.9302   19.3250   67.3326 C   0  0  0  0  0  0  0  0  0  0  0  0
   -6.2849   19.2672   67.0141 C   0  0  0  0  0  0  0  0  0  0  0  0
   -6.8306   20.2895   66.2272 O   0  0  0  0  0  0  0  0  0  0  0  0
  -14.1204   14.9549   72.8046 C   0  0  0  0  0  0  0  0  0  0  0  0
   -4.1414   20.2985   66.7408 O   0  0  0  0  0  0  0  0  0  0  0  0
   -3.4565   20.1743   65.7653 C   0  0  0  0  0  0  0  0  0  0  0  0
  1  2  2  0
  1  6  1  0
  1 11  1  0
  2  3  1  0
  3  4  1  0
  3  7  1  0
  4  9  2  0
  4  5  1  0
  5  6  1  0
  5  8  1  0
  6 10  2  0
  8 13  1  0
 11 12  3  0
 16 19  1  0
 24 25  1  0
 17 26  1  0
 23 27  1  0
 27 28  1  0
 13 20  2  0
 20 21  1  0
 21 22  2  0
 22 23  1  0
 23 24  2  0
 24 13  1  0
  7 18  2  0
 18 17  1  0
 17 16  2  0
 16 15  1  0
 15 14  2  0
 14  7  1  0
M  END

$$$$
No_428-gen_results_new/Mpro_initial_molecule_p3/2024-06-19-20-31-25/
     RDKit          3D

 28 30  0  0  0  0  0  0  0  0999 V2000
  -10.3383   15.1532   67.5971 C   0  0  0  0  0  0  0  0  0  0  0  0
  -10.7220   15.1619   68.8301 N   0  0  0  0  0  0  0  0  0  0  0  0
  -10.4044   16.2024   69.6852 N   0  0  0  0  0  0  0  0  0  0  0  0
   -9.7271   17.3221   69.2607 C   0  0  0  0  0  0  0  0  0  0  0  0
   -9.3095   17.3212   67.9557 N   0  0  0  0  0  0  0  0  0  0  0  0
   -9.5450   16.2958   67.0814 C   0  0  0  0  0  0  0  0  0  0  0  0
  -10.8644   16.0907   71.0374 C   0  0  0  0  0  0  0  0  0  0  0  0
   -8.5330   18.4792   67.4604 C   0  0  0  0  0  0  0  0  0  0  0  0
   -9.5433   18.2987   69.9938 O   0  0  0  0  0  0  0  0  0  0  0  0
   -9.1481   16.2876   65.9124 O   0  0  0  0  0  0  0  0  0  0  0  0
  -10.7304   14.0247   66.8209 C   0  0  0  0  0  0  0  0  0  0  0  0
  -11.1003   13.0895   66.2465 N   0  0  0  0  0  0  0  0  0  0  0  0
   -7.0275   18.2876   67.7219 C   0  0  0  0  0  0  0  0  0  0  0  0
  -10.0126   16.3511   72.1395 C   0  0  0  0  0  0  0  0  0  0  0  0
  -10.4883   16.2212   73.4591 C   0  0  0  0  0  0  0  0  0  0  0  0
  -11.8103   15.8022   73.6966 C   0  0  0  0  0  0  0  0  0  0  0  0
  -12.6594   15.5153   72.6113 C   0  0  0  0  0  0  0  0  0  0  0  0
  -12.1896   15.6561   71.2886 C   0  0  0  0  0  0  0  0  0  0  0  0
  -12.2768   15.6000   75.1088 C   0  0  0  0  0  0  0  0  0  0  0  0
   -6.5341   17.3729   68.3685 C   0  0  0  0  0  0  0  0  0  0  0  0
   -5.1308   17.1882   68.5568 C   0  0  0  0  0  0  0  0  0  0  0  0
   -6.3132   19.4047   67.2946 C   0  0  0  0  0  0  0  0  0  0  0  0
   -4.9040   19.2890   67.4766 C   0  0  0  0  0  0  0  0  0  0  0  0
   -4.2493   20.3225   67.0195 F   0  0  0  0  0  0  0  0  0  0  0  0
   -4.3681   18.2397   68.0865 C   0  0  0  0  0  0  0  0  0  0  0  0
  -12.5809   16.5947   75.6961 O   0  0  0  0  0  0  0  0  0  0  0  0
  -12.1176   14.5201   75.5994 O   0  0  0  0  0  0  0  0  0  0  0  0
   -3.0430   18.2229   68.3314 F   0  0  0  0  0  0  0  0  0  0  0  0
  1  2  2  0
  1  6  1  0
  1 11  1  0
  2  3  1  0
  3  4  1  0
  3  7  1  0
  4  9  2  0
  4  5  1  0
  5  6  1  0
  5  8  1  0
  6 10  2  0
  8 13  1  0
 11 12  3  0
 16 19  1  0
 23 24  1  0
 19 26  2  0
 19 27  1  0
 25 28  1  0
 13 20  2  0
 20 21  1  0
 21 25  2  0
 25 23  1  0
 23 22  2  0
 22 13  1  0
  7 18  2  0
 18 17  1  0
 17 16  2  0
 16 15  1  0
 15 14  2  0
 14  7  1  0
M  END

$$$$
No_429-gen_results_new/Mpro_initial_molecule_p3/2024-06-19-20-31-25/
     RDKit          3D

 28 30  0  0  0  0  0  0  0  0999 V2000
  -10.3383   15.1532   67.5971 C   0  0  0  0  0  0  0  0  0  0  0  0
  -10.7220   15.1619   68.8301 N   0  0  0  0  0  0  0  0  0  0  0  0
  -10.4044   16.2024   69.6852 N   0  0  0  0  0  0  0  0  0  0  0  0
   -9.7271   17.3221   69.2607 C   0  0  0  0  0  0  0  0  0  0  0  0
   -9.3095   17.3212   67.9557 N   0  0  0  0  0  0  0  0  0  0  0  0
   -9.5450   16.2958   67.0814 C   0  0  0  0  0  0  0  0  0  0  0  0
  -10.8644   16.0907   71.0374 C   0  0  0  0  0  0  0  0  0  0  0  0
   -8.5330   18.4792   67.4604 C   0  0  0  0  0  0  0  0  0  0  0  0
   -9.5433   18.2987   69.9938 O   0  0  0  0  0  0  0  0  0  0  0  0
   -9.1481   16.2876   65.9124 O   0  0  0  0  0  0  0  0  0  0  0  0
  -10.7304   14.0247   66.8209 C   0  0  0  0  0  0  0  0  0  0  0  0
  -11.1003   13.0895   66.2465 N   0  0  0  0  0  0  0  0  0  0  0  0
   -7.0275   18.2876   67.7219 C   0  0  0  0  0  0  0  0  0  0  0  0
  -10.0126   16.3511   72.1395 C   0  0  0  0  0  0  0  0  0  0  0  0
  -10.4883   16.2212   73.4591 C   0  0  0  0  0  0  0  0  0  0  0  0
  -11.8103   15.8022   73.6966 C   0  0  0  0  0  0  0  0  0  0  0  0
  -12.6594   15.5153   72.6113 C   0  0  0  0  0  0  0  0  0  0  0  0
  -12.1896   15.6561   71.2886 C   0  0  0  0  0  0  0  0  0  0  0  0
  -12.2484   15.6088   75.0145 O   0  0  0  0  0  0  0  0  0  0  0  0
   -6.3059   19.3591   66.9155 C   0  0  0  0  0  0  0  0  0  0  0  0
   -4.9923   19.4463   66.9703 C   0  0  0  0  0  0  0  0  0  0  0  0
   -4.2907   20.4330   66.2898 C   0  0  0  0  0  0  0  0  0  0  0  0
   -4.9709   21.5154   65.8584 C   0  0  0  0  0  0  0  0  0  0  0  0
   -6.3875   21.4522   65.7832 C   0  0  0  0  0  0  0  0  0  0  0  0
   -7.0587   20.4371   66.3781 C   0  0  0  0  0  0  0  0  0  0  0  0
   -4.2108   22.5415   65.2151 O   0  0  0  0  0  0  0  0  0  0  0  0
  -12.3386   16.7900   75.7237 C   0  0  0  0  0  0  0  0  0  0  0  0
  -13.9453   14.9691   72.7876 F   0  0  0  0  0  0  0  0  0  0  0  0
  1  2  2  0
  1  6  1  0
  1 11  1  0
  2  3  1  0
  3  4  1  0
  3  7  1  0
  4  9  2  0
  4  5  1  0
  5  6  1  0
  5  8  1  0
  6 10  2  0
  8 13  1  0
 11 12  3  0
 16 19  1  0
 13 20  1  0
 23 26  1  0
 19 27  1  0
 17 28  1  0
 20 21  2  0
 21 22  1  0
 22 23  2  0
 23 24  1  0
 24 25  2  0
 25 20  1  0
  7 18  2  0
 18 17  1  0
 17 16  2  0
 16 15  1  0
 15 14  2  0
 14  7  1  0
M  END

$$$$
No_430-gen_results_new/Mpro_initial_molecule_p3/2024-06-19-20-31-25/
     RDKit          3D

 28 30  0  0  0  0  0  0  0  0999 V2000
  -10.3383   15.1532   67.5971 C   0  0  0  0  0  0  0  0  0  0  0  0
  -10.7220   15.1619   68.8301 N   0  0  0  0  0  0  0  0  0  0  0  0
  -10.4044   16.2024   69.6852 N   0  0  0  0  0  0  0  0  0  0  0  0
   -9.7271   17.3221   69.2607 C   0  0  0  0  0  0  0  0  0  0  0  0
   -9.3095   17.3212   67.9557 N   0  0  0  0  0  0  0  0  0  0  0  0
   -9.5450   16.2958   67.0814 C   0  0  0  0  0  0  0  0  0  0  0  0
  -10.8644   16.0907   71.0374 C   0  0  0  0  0  0  0  0  0  0  0  0
   -8.5330   18.4792   67.4604 C   0  0  0  0  0  0  0  0  0  0  0  0
   -9.5433   18.2987   69.9938 O   0  0  0  0  0  0  0  0  0  0  0  0
   -9.1481   16.2876   65.9124 O   0  0  0  0  0  0  0  0  0  0  0  0
  -10.7304   14.0247   66.8209 C   0  0  0  0  0  0  0  0  0  0  0  0
  -11.1003   13.0895   66.2465 N   0  0  0  0  0  0  0  0  0  0  0  0
   -7.0275   18.2876   67.7219 C   0  0  0  0  0  0  0  0  0  0  0  0
  -10.0126   16.3511   72.1395 C   0  0  0  0  0  0  0  0  0  0  0  0
  -10.4883   16.2212   73.4591 C   0  0  0  0  0  0  0  0  0  0  0  0
  -11.8103   15.8022   73.6966 C   0  0  0  0  0  0  0  0  0  0  0  0
  -12.6594   15.5153   72.6113 C   0  0  0  0  0  0  0  0  0  0  0  0
  -12.1896   15.6561   71.2886 C   0  0  0  0  0  0  0  0  0  0  0  0
  -12.3486   15.5799   75.3255 Cl  0  0  0  0  0  0  0  0  0  0  0  0
   -6.3058   19.3592   66.9157 C   0  0  0  0  0  0  0  0  0  0  0  0
   -6.8032   20.1736   66.5910 O   0  0  0  0  0  0  0  0  0  0  0  0
   -4.9147   19.1333   66.9279 N   0  0  0  0  0  0  0  0  0  0  0  0
   -4.0556   20.0689   66.2168 C   0  0  0  0  0  0  0  0  0  0  0  0
   -2.6732   19.7672   66.3438 C   0  0  0  0  0  0  0  0  0  0  0  0
   -2.1314   19.3494   67.4233 C   0  0  0  0  0  0  0  0  0  0  0  0
   -2.5798   19.6871   68.7849 C   0  0  0  0  0  0  0  0  0  0  0  0
   -3.7457   20.6426   68.7254 C   0  0  0  0  0  0  0  0  0  0  0  0
   -4.3621   20.8763   67.5123 N   0  0  0  0  0  0  0  0  0  0  0  0
  1  2  2  0
  1  6  1  0
  1 11  1  0
  2  3  1  0
  3  4  1  0
  3  7  1  0
  4  9  2  0
  4  5  1  0
  5  6  1  0
  5  8  1  0
  6 10  2  0
  8 13  1  0
 11 12  3  0
 16 19  1  0
 13 20  1  0
 20 21  2  0
 20 22  1  0
 22 23  1  0
 23 24  2  0
 24 25  1  0
 25 26  2  0
 26 27  1  0
 27 28  2  0
 28 23  1  0
  7 18  2  0
 18 17  1  0
 17 16  2  0
 16 15  1  0
 15 14  2  0
 14  7  1  0
M  END

$$$$
No_431-gen_results_new/Mpro_initial_molecule_p3/2024-06-19-20-31-25/
     RDKit          3D

 28 30  0  0  0  0  0  0  0  0999 V2000
  -10.3383   15.1532   67.5971 C   0  0  0  0  0  0  0  0  0  0  0  0
  -10.7220   15.1619   68.8301 N   0  0  0  0  0  0  0  0  0  0  0  0
  -10.4044   16.2024   69.6852 N   0  0  0  0  0  0  0  0  0  0  0  0
   -9.7271   17.3221   69.2607 C   0  0  0  0  0  0  0  0  0  0  0  0
   -9.3095   17.3212   67.9557 N   0  0  0  0  0  0  0  0  0  0  0  0
   -9.5450   16.2958   67.0814 C   0  0  0  0  0  0  0  0  0  0  0  0
  -10.8644   16.0907   71.0374 C   0  0  0  0  0  0  0  0  0  0  0  0
   -8.5330   18.4792   67.4604 C   0  0  0  0  0  0  0  0  0  0  0  0
   -9.5433   18.2987   69.9938 O   0  0  0  0  0  0  0  0  0  0  0  0
   -9.1481   16.2876   65.9124 O   0  0  0  0  0  0  0  0  0  0  0  0
  -10.7304   14.0247   66.8209 C   0  0  0  0  0  0  0  0  0  0  0  0
  -11.1003   13.0895   66.2465 N   0  0  0  0  0  0  0  0  0  0  0  0
   -7.0275   18.2876   67.7219 C   0  0  0  0  0  0  0  0  0  0  0  0
  -10.0126   16.3511   72.1395 C   0  0  0  0  0  0  0  0  0  0  0  0
  -10.4883   16.2212   73.4591 C   0  0  0  0  0  0  0  0  0  0  0  0
  -11.8103   15.8022   73.6966 C   0  0  0  0  0  0  0  0  0  0  0  0
  -12.6594   15.5153   72.6113 C   0  0  0  0  0  0  0  0  0  0  0  0
  -12.1896   15.6561   71.2886 C   0  0  0  0  0  0  0  0  0  0  0  0
  -12.3486   15.5799   75.3255 Cl  0  0  0  0  0  0  0  0  0  0  0  0
   -6.3058   19.3592   66.9157 C   0  0  0  0  0  0  0  0  0  0  0  0
   -4.9894   19.4432   66.9687 C   0  0  0  0  0  0  0  0  0  0  0  0
   -4.2885   20.4306   66.2890 C   0  0  0  0  0  0  0  0  0  0  0  0
   -4.9684   21.5146   65.8589 C   0  0  0  0  0  0  0  0  0  0  0  0
   -4.2619   22.4526   65.3094 F   0  0  0  0  0  0  0  0  0  0  0  0
   -6.2991   21.4625   65.7411 C   0  0  0  0  0  0  0  0  0  0  0  0
   -7.0605   20.4000   66.3306 C   0  0  0  0  0  0  0  0  0  0  0  0
  -14.1199   14.9551   72.8043 C   0  0  0  0  0  0  0  0  0  0  0  0
   -6.5731   17.2878   68.2863 O   0  0  0  0  0  0  0  0  0  0  0  0
  1  2  2  0
  1  6  1  0
  1 11  1  0
  2  3  1  0
  3  4  1  0
  3  7  1  0
  4  9  2  0
  4  5  1  0
  5  6  1  0
  5  8  1  0
  6 10  2  0
  8 13  1  0
 11 12  3  0
 16 19  1  0
 13 20  1  0
 23 24  1  0
 17 27  1  0
 13 28  2  0
 20 21  2  0
 21 22  1  0
 22 23  2  0
 23 25  1  0
 25 26  2  0
 26 20  1  0
  7 18  2  0
 18 17  1  0
 17 16  2  0
 16 15  1  0
 15 14  2  0
 14  7  1  0
M  END

$$$$
No_432-gen_results_new/Mpro_initial_molecule_p3/2024-06-19-20-31-25/
     RDKit          3D

 28 30  0  0  0  0  0  0  0  0999 V2000
  -10.3383   15.1532   67.5971 C   0  0  0  0  0  0  0  0  0  0  0  0
  -10.7220   15.1619   68.8301 N   0  0  0  0  0  0  0  0  0  0  0  0
  -10.4044   16.2024   69.6852 N   0  0  0  0  0  0  0  0  0  0  0  0
   -9.7271   17.3221   69.2607 C   0  0  0  0  0  0  0  0  0  0  0  0
   -9.3095   17.3212   67.9557 N   0  0  0  0  0  0  0  0  0  0  0  0
   -9.5450   16.2958   67.0814 C   0  0  0  0  0  0  0  0  0  0  0  0
  -10.8644   16.0907   71.0374 C   0  0  0  0  0  0  0  0  0  0  0  0
   -8.5330   18.4792   67.4604 C   0  0  0  0  0  0  0  0  0  0  0  0
   -9.5433   18.2987   69.9938 O   0  0  0  0  0  0  0  0  0  0  0  0
   -9.1481   16.2876   65.9124 O   0  0  0  0  0  0  0  0  0  0  0  0
  -10.7304   14.0247   66.8209 C   0  0  0  0  0  0  0  0  0  0  0  0
  -11.1003   13.0895   66.2465 N   0  0  0  0  0  0  0  0  0  0  0  0
   -7.0275   18.2876   67.7219 C   0  0  0  0  0  0  0  0  0  0  0  0
  -10.0126   16.3511   72.1395 C   0  0  0  0  0  0  0  0  0  0  0  0
  -10.4883   16.2212   73.4591 C   0  0  0  0  0  0  0  0  0  0  0  0
  -11.8103   15.8022   73.6966 C   0  0  0  0  0  0  0  0  0  0  0  0
  -12.6594   15.5153   72.6113 C   0  0  0  0  0  0  0  0  0  0  0  0
  -12.1896   15.6561   71.2886 C   0  0  0  0  0  0  0  0  0  0  0  0
  -12.2484   15.6088   75.0145 O   0  0  0  0  0  0  0  0  0  0  0  0
   -6.5341   17.3731   68.3686 C   0  0  0  0  0  0  0  0  0  0  0  0
   -5.1307   17.1884   68.5569 C   0  0  0  0  0  0  0  0  0  0  0  0
   -6.2353   18.5839   66.5227 C   0  0  0  0  0  0  0  0  0  0  0  0
   -4.8739   18.3559   66.5018 C   0  0  0  0  0  0  0  0  0  0  0  0
   -4.3443   17.5536   67.4636 C   0  0  0  0  0  0  0  0  0  0  0  0
  -12.3371   16.7921   75.7210 C   0  0  0  0  0  0  0  0  0  0  0  0
  -14.0716   14.8953   72.8102 C   0  0  0  0  0  0  0  0  0  0  0  0
   -2.9802   17.2313   67.3800 O   0  0  0  0  0  0  0  0  0  0  0  0
   -2.5555   16.1638   67.4342 C   0  0  0  0  0  0  0  0  0  0  0  0
  1  2  2  0
  1  6  1  0
  1 11  1  0
  2  3  1  0
  3  4  1  0
  3  7  1  0
  4  9  2  0
  4  5  1  0
  5  6  1  0
  5  8  1  0
  6 10  2  0
  8 13  1  0
 11 12  3  0
 16 19  1  0
 19 25  1  0
 17 26  1  0
 24 27  1  0
 27 28  1  0
 13 20  2  0
 20 21  1  0
 21 24  2  0
 24 23  1  0
 23 22  2  0
 22 13  1  0
  7 18  2  0
 18 17  1  0
 17 16  2  0
 16 15  1  0
 15 14  2  0
 14  7  1  0
M  END

$$$$
No_433-gen_results_new/Mpro_initial_molecule_p3/2024-06-19-20-31-25/
     RDKit          3D

 28 30  0  0  0  0  0  0  0  0999 V2000
  -10.3383   15.1532   67.5971 C   0  0  0  0  0  0  0  0  0  0  0  0
  -10.7220   15.1619   68.8301 N   0  0  0  0  0  0  0  0  0  0  0  0
  -10.4044   16.2024   69.6852 N   0  0  0  0  0  0  0  0  0  0  0  0
   -9.7271   17.3221   69.2607 C   0  0  0  0  0  0  0  0  0  0  0  0
   -9.3095   17.3212   67.9557 N   0  0  0  0  0  0  0  0  0  0  0  0
   -9.5450   16.2958   67.0814 C   0  0  0  0  0  0  0  0  0  0  0  0
  -10.8644   16.0907   71.0374 C   0  0  0  0  0  0  0  0  0  0  0  0
   -8.5330   18.4792   67.4604 C   0  0  0  0  0  0  0  0  0  0  0  0
   -9.5433   18.2987   69.9938 O   0  0  0  0  0  0  0  0  0  0  0  0
   -9.1481   16.2876   65.9124 O   0  0  0  0  0  0  0  0  0  0  0  0
  -10.7304   14.0247   66.8209 C   0  0  0  0  0  0  0  0  0  0  0  0
  -11.1003   13.0895   66.2465 N   0  0  0  0  0  0  0  0  0  0  0  0
   -7.0275   18.2876   67.7219 C   0  0  0  0  0  0  0  0  0  0  0  0
  -10.0126   16.3511   72.1395 C   0  0  0  0  0  0  0  0  0  0  0  0
  -10.4883   16.2212   73.4591 C   0  0  0  0  0  0  0  0  0  0  0  0
  -11.8103   15.8022   73.6966 C   0  0  0  0  0  0  0  0  0  0  0  0
  -12.6594   15.5153   72.6113 C   0  0  0  0  0  0  0  0  0  0  0  0
  -12.1896   15.6561   71.2886 C   0  0  0  0  0  0  0  0  0  0  0  0
  -12.2484   15.6088   75.0145 O   0  0  0  0  0  0  0  0  0  0  0  0
   -6.3059   19.3591   66.9155 C   0  0  0  0  0  0  0  0  0  0  0  0
   -4.9923   19.4463   66.9703 C   0  0  0  0  0  0  0  0  0  0  0  0
   -4.2907   20.4330   66.2898 C   0  0  0  0  0  0  0  0  0  0  0  0
   -4.9709   21.5154   65.8584 C   0  0  0  0  0  0  0  0  0  0  0  0
   -6.3464   21.4598   65.7952 N   0  0  0  0  0  0  0  0  0  0  0  0
   -7.0208   20.4587   66.3566 C   0  0  0  0  0  0  0  0  0  0  0  0
   -4.1922   22.6287   65.1538 C   0  0  0  0  0  0  0  0  0  0  0  0
  -11.8484   14.7426   75.7206 C   0  0  0  0  0  0  0  0  0  0  0  0
   -3.8968   22.4236   63.7749 C   0  0  0  0  0  0  0  0  0  0  0  0
  1  2  2  0
  1  6  1  0
  1 11  1  0
  2  3  1  0
  3  4  1  0
  3  7  1  0
  4  9  2  0
  4  5  1  0
  5  6  1  0
  5  8  1  0
  6 10  2  0
  8 13  1  0
 11 12  3  0
 16 19  1  0
 13 20  1  0
 23 26  1  0
 19 27  1  0
 26 28  1  0
 20 21  2  0
 21 22  1  0
 22 23  2  0
 23 24  1  0
 24 25  2  0
 25 20  1  0
  7 18  2  0
 18 17  1  0
 17 16  2  0
 16 15  1  0
 15 14  2  0
 14  7  1  0
M  END

$$$$
No_434-gen_results_new/Mpro_initial_molecule_p3/2024-06-19-20-31-25/
     RDKit          3D

 28 30  0  0  0  0  0  0  0  0999 V2000
  -10.3383   15.1532   67.5971 C   0  0  0  0  0  0  0  0  0  0  0  0
  -10.7220   15.1619   68.8301 N   0  0  0  0  0  0  0  0  0  0  0  0
  -10.4044   16.2024   69.6852 N   0  0  0  0  0  0  0  0  0  0  0  0
   -9.7271   17.3221   69.2607 C   0  0  0  0  0  0  0  0  0  0  0  0
   -9.3095   17.3212   67.9557 N   0  0  0  0  0  0  0  0  0  0  0  0
   -9.5450   16.2958   67.0814 C   0  0  0  0  0  0  0  0  0  0  0  0
  -10.8644   16.0907   71.0374 C   0  0  0  0  0  0  0  0  0  0  0  0
   -8.5330   18.4792   67.4604 C   0  0  0  0  0  0  0  0  0  0  0  0
   -9.5433   18.2987   69.9938 O   0  0  0  0  0  0  0  0  0  0  0  0
   -9.1481   16.2876   65.9124 O   0  0  0  0  0  0  0  0  0  0  0  0
  -10.7304   14.0247   66.8209 C   0  0  0  0  0  0  0  0  0  0  0  0
  -11.1003   13.0895   66.2465 N   0  0  0  0  0  0  0  0  0  0  0  0
   -7.0275   18.2876   67.7219 C   0  0  0  0  0  0  0  0  0  0  0  0
  -10.0126   16.3511   72.1395 C   0  0  0  0  0  0  0  0  0  0  0  0
  -10.4883   16.2212   73.4591 C   0  0  0  0  0  0  0  0  0  0  0  0
  -11.8103   15.8022   73.6966 C   0  0  0  0  0  0  0  0  0  0  0  0
  -12.6594   15.5153   72.6113 C   0  0  0  0  0  0  0  0  0  0  0  0
  -12.1896   15.6561   71.2886 C   0  0  0  0  0  0  0  0  0  0  0  0
  -12.2484   15.6088   75.0145 O   0  0  0  0  0  0  0  0  0  0  0  0
   -6.3059   19.3591   66.9155 C   0  0  0  0  0  0  0  0  0  0  0  0
   -4.9923   19.4463   66.9703 C   0  0  0  0  0  0  0  0  0  0  0  0
   -4.2717   18.3411   67.6555 C   0  0  0  0  0  0  0  0  0  0  0  0
   -5.0436   17.2562   68.3053 C   0  0  0  0  0  0  0  0  0  0  0  0
   -6.4249   17.2341   68.1852 C   0  0  0  0  0  0  0  0  0  0  0  0
  -11.8786   16.5249   75.9061 C   0  0  0  0  0  0  0  0  0  0  0  0
   -4.3050   20.3212   66.4353 F   0  0  0  0  0  0  0  0  0  0  0  0
  -14.0780   14.8967   72.8037 C   0  0  0  0  0  0  0  0  0  0  0  0
   -2.9524   18.3144   67.6501 F   0  0  0  0  0  0  0  0  0  0  0  0
  1  2  2  0
  1  6  1  0
  1 11  1  0
  2  3  1  0
  3  4  1  0
  3  7  1  0
  4  9  2  0
  4  5  1  0
  5  6  1  0
  5  8  1  0
  6 10  2  0
  8 13  1  0
 11 12  3  0
 16 19  1  0
 19 25  1  0
 21 26  1  0
 17 27  1  0
 22 28  1  0
 13 20  2  0
 20 21  1  0
 21 22  2  0
 22 23  1  0
 23 24  2  0
 24 13  1  0
  7 18  2  0
 18 17  1  0
 17 16  2  0
 16 15  1  0
 15 14  2  0
 14  7  1  0
M  END

$$$$
No_435-gen_results_new/Mpro_initial_molecule_p3/2024-06-19-20-31-25/
     RDKit          3D

 28 30  0  0  0  0  0  0  0  0999 V2000
  -10.3383   15.1532   67.5971 C   0  0  0  0  0  0  0  0  0  0  0  0
  -10.7220   15.1619   68.8301 N   0  0  0  0  0  0  0  0  0  0  0  0
  -10.4044   16.2024   69.6852 N   0  0  0  0  0  0  0  0  0  0  0  0
   -9.7271   17.3221   69.2607 C   0  0  0  0  0  0  0  0  0  0  0  0
   -9.3095   17.3212   67.9557 N   0  0  0  0  0  0  0  0  0  0  0  0
   -9.5450   16.2958   67.0814 C   0  0  0  0  0  0  0  0  0  0  0  0
  -10.8644   16.0907   71.0374 C   0  0  0  0  0  0  0  0  0  0  0  0
   -8.5330   18.4792   67.4604 C   0  0  0  0  0  0  0  0  0  0  0  0
   -9.5433   18.2987   69.9938 O   0  0  0  0  0  0  0  0  0  0  0  0
   -9.1481   16.2876   65.9124 O   0  0  0  0  0  0  0  0  0  0  0  0
  -10.7304   14.0247   66.8209 C   0  0  0  0  0  0  0  0  0  0  0  0
  -11.1003   13.0895   66.2465 N   0  0  0  0  0  0  0  0  0  0  0  0
   -7.0275   18.2876   67.7219 C   0  0  0  0  0  0  0  0  0  0  0  0
  -10.0126   16.3511   72.1395 C   0  0  0  0  0  0  0  0  0  0  0  0
  -10.4883   16.2212   73.4591 C   0  0  0  0  0  0  0  0  0  0  0  0
  -11.8103   15.8022   73.6966 C   0  0  0  0  0  0  0  0  0  0  0  0
  -12.6594   15.5153   72.6113 C   0  0  0  0  0  0  0  0  0  0  0  0
  -12.1896   15.6561   71.2886 C   0  0  0  0  0  0  0  0  0  0  0  0
  -12.2768   15.6000   75.1088 C   0  0  0  0  0  0  0  0  0  0  0  0
   -6.3059   19.3590   66.9154 C   0  0  0  0  0  0  0  0  0  0  0  0
   -4.9893   19.4432   66.9685 C   0  0  0  0  0  0  0  0  0  0  0  0
   -4.2710   18.3392   67.6545 C   0  0  0  0  0  0  0  0  0  0  0  0
   -5.0431   17.2552   68.3050 C   0  0  0  0  0  0  0  0  0  0  0  0
   -6.4246   17.2337   68.1850 C   0  0  0  0  0  0  0  0  0  0  0  0
  -11.9778   16.5262   75.8855 N   0  0  0  0  0  0  0  0  0  0  0  0
   -4.2772   20.3483   66.4178 O   0  0  0  0  0  0  0  0  0  0  0  0
   -4.0887   20.5604   65.2624 C   0  0  0  0  0  0  0  0  0  0  0  0
   -3.3810   21.7562   64.9052 C   0  0  0  0  0  0  0  0  0  0  0  0
  1  2  2  0
  1  6  1  0
  1 11  1  0
  2  3  1  0
  3  4  1  0
  3  7  1  0
  4  9  2  0
  4  5  1  0
  5  6  1  0
  5  8  1  0
  6 10  2  0
  8 13  1  0
 11 12  3  0
 16 19  1  0
 19 25  1  0
 21 26  1  0
 26 27  1  0
 27 28  1  0
 13 20  2  0
 20 21  1  0
 21 22  2  0
 22 23  1  0
 23 24  2  0
 24 13  1  0
  7 18  2  0
 18 17  1  0
 17 16  2  0
 16 15  1  0
 15 14  2  0
 14  7  1  0
M  END

$$$$
No_436-gen_results_new/Mpro_initial_molecule_p3/2024-06-19-20-31-25/
     RDKit          3D

 28 30  0  0  0  0  0  0  0  0999 V2000
  -10.3383   15.1532   67.5971 C   0  0  0  0  0  0  0  0  0  0  0  0
  -10.7220   15.1619   68.8301 N   0  0  0  0  0  0  0  0  0  0  0  0
  -10.4044   16.2024   69.6852 N   0  0  0  0  0  0  0  0  0  0  0  0
   -9.7271   17.3221   69.2607 C   0  0  0  0  0  0  0  0  0  0  0  0
   -9.3095   17.3212   67.9557 N   0  0  0  0  0  0  0  0  0  0  0  0
   -9.5450   16.2958   67.0814 C   0  0  0  0  0  0  0  0  0  0  0  0
  -10.8644   16.0907   71.0374 C   0  0  0  0  0  0  0  0  0  0  0  0
   -8.5330   18.4792   67.4604 C   0  0  0  0  0  0  0  0  0  0  0  0
   -9.5433   18.2987   69.9938 O   0  0  0  0  0  0  0  0  0  0  0  0
   -9.1481   16.2876   65.9124 O   0  0  0  0  0  0  0  0  0  0  0  0
  -10.7304   14.0247   66.8209 C   0  0  0  0  0  0  0  0  0  0  0  0
  -11.1003   13.0895   66.2465 N   0  0  0  0  0  0  0  0  0  0  0  0
   -7.0275   18.2876   67.7219 C   0  0  0  0  0  0  0  0  0  0  0  0
  -10.0126   16.3511   72.1395 C   0  0  0  0  0  0  0  0  0  0  0  0
  -10.4883   16.2212   73.4591 C   0  0  0  0  0  0  0  0  0  0  0  0
  -11.8103   15.8022   73.6966 C   0  0  0  0  0  0  0  0  0  0  0  0
  -12.6594   15.5153   72.6113 C   0  0  0  0  0  0  0  0  0  0  0  0
  -12.1896   15.6561   71.2886 C   0  0  0  0  0  0  0  0  0  0  0  0
  -12.2484   15.6088   75.0145 O   0  0  0  0  0  0  0  0  0  0  0  0
   -6.5557   17.2016   67.9039 O   0  0  0  0  0  0  0  0  0  0  0  0
   -6.4129   19.3145   68.0693 N   0  0  0  0  0  0  0  0  0  0  0  0
  -12.3392   16.7914   75.7224 C   0  0  0  0  0  0  0  0  0  0  0  0
   -4.9881   19.3267   68.2188 C   0  0  0  0  0  0  0  0  0  0  0  0
   -4.1543   19.7573   67.1570 C   0  0  0  0  0  0  0  0  0  0  0  0
   -4.5042   20.7410   66.2449 C   0  0  0  0  0  0  0  0  0  0  0  0
   -3.7534   20.9301   65.2357 C   0  0  0  0  0  0  0  0  0  0  0  0
   -2.6432   20.2455   65.2837 C   0  0  0  0  0  0  0  0  0  0  0  0
   -2.8119   19.1931   66.6813 S   0  0  0  0  0  0  0  0  0  0  0  0
  1  2  2  0
  1  6  1  0
  1 11  1  0
  2  3  1  0
  3  4  1  0
  3  7  1  0
  4  9  2  0
  4  5  1  0
  5  6  1  0
  5  8  1  0
  6 10  2  0
  8 13  1  0
 11 12  3  0
 16 19  1  0
 13 20  2  0
 13 21  1  0
 19 22  1  0
 21 23  1  0
 23 24  1  0
 24 25  2  0
 25 26  1  0
 26 27  2  0
 24 28  1  0
 27 28  1  0
  7 18  2  0
 18 17  1  0
 17 16  2  0
 16 15  1  0
 15 14  2  0
 14  7  1  0
M  END

$$$$
No_437-gen_results_new/Mpro_initial_molecule_p3/2024-06-19-20-31-25/
     RDKit          3D

 28 30  0  0  0  0  0  0  0  0999 V2000
  -10.3383   15.1532   67.5971 C   0  0  0  0  0  0  0  0  0  0  0  0
  -10.7220   15.1619   68.8301 N   0  0  0  0  0  0  0  0  0  0  0  0
  -10.4044   16.2024   69.6852 N   0  0  0  0  0  0  0  0  0  0  0  0
   -9.7271   17.3221   69.2607 C   0  0  0  0  0  0  0  0  0  0  0  0
   -9.3095   17.3212   67.9557 N   0  0  0  0  0  0  0  0  0  0  0  0
   -9.5450   16.2958   67.0814 C   0  0  0  0  0  0  0  0  0  0  0  0
  -10.8644   16.0907   71.0374 C   0  0  0  0  0  0  0  0  0  0  0  0
   -8.5330   18.4792   67.4604 C   0  0  0  0  0  0  0  0  0  0  0  0
   -9.5433   18.2987   69.9938 O   0  0  0  0  0  0  0  0  0  0  0  0
   -9.1481   16.2876   65.9124 O   0  0  0  0  0  0  0  0  0  0  0  0
  -10.7304   14.0247   66.8209 C   0  0  0  0  0  0  0  0  0  0  0  0
  -11.1003   13.0895   66.2465 N   0  0  0  0  0  0  0  0  0  0  0  0
   -7.0275   18.2876   67.7219 C   0  0  0  0  0  0  0  0  0  0  0  0
  -10.0126   16.3511   72.1395 C   0  0  0  0  0  0  0  0  0  0  0  0
  -10.4883   16.2212   73.4591 C   0  0  0  0  0  0  0  0  0  0  0  0
  -11.8103   15.8022   73.6966 C   0  0  0  0  0  0  0  0  0  0  0  0
  -12.6594   15.5153   72.6113 C   0  0  0  0  0  0  0  0  0  0  0  0
  -12.1896   15.6561   71.2886 C   0  0  0  0  0  0  0  0  0  0  0  0
  -12.2768   15.6000   75.1088 C   0  0  0  0  0  0  0  0  0  0  0  0
   -6.4522   19.3092   67.8826 C   0  0  0  0  0  0  0  0  0  0  0  0
  -12.3537   14.5923   75.5994 O   0  0  0  0  0  0  0  0  0  0  0  0
  -12.4205   16.7483   75.8013 N   0  0  0  0  0  0  0  0  0  0  0  0
   -6.3700   20.4051   67.0253 C   0  0  0  0  0  0  0  0  0  0  0  0
   -7.7686   20.6437   66.4634 C   0  0  0  0  0  0  0  0  0  0  0  0
   -8.8429   19.6700   66.6705 C   0  0  0  0  0  0  0  0  0  0  0  0
   -5.3740   21.3938   66.7702 C   0  0  0  0  0  0  0  0  0  0  0  0
   -4.0732   20.9926   67.1628 C   0  0  0  0  0  0  0  0  0  0  0  0
   -2.9724   21.6057   66.4357 C   0  0  0  0  0  0  0  0  0  0  0  0
  1  2  2  0
  1  6  1  0
  1 11  1  0
  2  3  1  0
  3  4  1  0
  3  7  1  0
  4  9  2  0
  4  5  1  0
  5  6  1  0
  5  8  1  0
  6 10  2  0
 11 12  3  0
 16 19  1  0
 19 21  2  0
 19 22  1  0
 23 26  1  0
 26 27  2  3
 27 28  1  0
  8 13  2  0
 13 20  1  0
 20 23  2  0
 23 24  1  0
 24 25  2  0
 25  8  1  0
  7 18  2  0
 18 17  1  0
 17 16  2  0
 16 15  1  0
 15 14  2  0
 14  7  1  0
M  END

$$$$
No_438-gen_results_new/Mpro_initial_molecule_p3/2024-06-19-20-31-25/
     RDKit          3D

 28 30  0  0  0  0  0  0  0  0999 V2000
  -10.3383   15.1532   67.5971 C   0  0  0  0  0  0  0  0  0  0  0  0
  -10.7220   15.1619   68.8301 N   0  0  0  0  0  0  0  0  0  0  0  0
  -10.4044   16.2024   69.6852 N   0  0  0  0  0  0  0  0  0  0  0  0
   -9.7271   17.3221   69.2607 C   0  0  0  0  0  0  0  0  0  0  0  0
   -9.3095   17.3212   67.9557 N   0  0  0  0  0  0  0  0  0  0  0  0
   -9.5450   16.2958   67.0814 C   0  0  0  0  0  0  0  0  0  0  0  0
  -10.8644   16.0907   71.0374 C   0  0  0  0  0  0  0  0  0  0  0  0
   -8.5330   18.4792   67.4604 C   0  0  0  0  0  0  0  0  0  0  0  0
   -9.5433   18.2987   69.9938 O   0  0  0  0  0  0  0  0  0  0  0  0
   -9.1481   16.2876   65.9124 O   0  0  0  0  0  0  0  0  0  0  0  0
  -10.7304   14.0247   66.8209 C   0  0  0  0  0  0  0  0  0  0  0  0
  -11.1003   13.0895   66.2465 N   0  0  0  0  0  0  0  0  0  0  0  0
   -7.0275   18.2876   67.7219 C   0  0  0  0  0  0  0  0  0  0  0  0
  -10.0126   16.3511   72.1395 C   0  0  0  0  0  0  0  0  0  0  0  0
  -10.4883   16.2212   73.4591 C   0  0  0  0  0  0  0  0  0  0  0  0
  -11.8103   15.8022   73.6966 C   0  0  0  0  0  0  0  0  0  0  0  0
  -12.6594   15.5153   72.6113 C   0  0  0  0  0  0  0  0  0  0  0  0
  -12.1896   15.6561   71.2886 C   0  0  0  0  0  0  0  0  0  0  0  0
  -12.3282   15.6698   75.1036 C   0  0  0  0  0  0  0  0  0  0  0  0
   -6.5339   17.3728   68.3682 C   0  0  0  0  0  0  0  0  0  0  0  0
   -7.3548   16.1043   69.3520 Cl  0  0  0  0  0  0  0  0  0  0  0  0
  -12.6137   16.6894   75.6514 O   0  0  0  0  0  0  0  0  0  0  0  0
  -11.9559   14.6148   75.6640 O   0  0  0  0  0  0  0  0  0  0  0  0
   -5.1154   17.3627   68.6444 C   0  0  0  0  0  0  0  0  0  0  0  0
   -6.2114   19.2905   67.1913 C   0  0  0  0  0  0  0  0  0  0  0  0
   -4.3494   18.3706   68.1696 C   0  0  0  0  0  0  0  0  0  0  0  0
   -4.9287   19.3173   67.3613 C   0  0  0  0  0  0  0  0  0  0  0  0
   -4.1320   20.3296   66.7653 N   0  0  0  0  0  0  0  0  0  0  0  0
  1  2  2  0
  1  6  1  0
  1 11  1  0
  2  3  1  0
  3  4  1  0
  3  7  1  0
  4  9  2  0
  4  5  1  0
  5  6  1  0
  5  8  1  0
  6 10  2  0
  8 13  1  0
 11 12  3  0
 16 19  1  0
 20 21  1  0
 19 22  2  0
 19 23  1  0
 27 28  1  0
  7 18  2  0
 18 17  1  0
 17 16  2  0
 16 15  1  0
 15 14  2  0
 14  7  1  0
 13 20  2  0
 20 24  1  0
 24 26  2  0
 26 27  1  0
 27 25  2  0
 25 13  1  0
M  END

$$$$
No_439-gen_results_new/Mpro_initial_molecule_p3/2024-06-19-20-31-25/
     RDKit          3D

 28 30  0  0  0  0  0  0  0  0999 V2000
  -10.3383   15.1532   67.5971 C   0  0  0  0  0  0  0  0  0  0  0  0
  -10.7220   15.1619   68.8301 N   0  0  0  0  0  0  0  0  0  0  0  0
  -10.4044   16.2024   69.6852 N   0  0  0  0  0  0  0  0  0  0  0  0
   -9.7271   17.3221   69.2607 C   0  0  0  0  0  0  0  0  0  0  0  0
   -9.3095   17.3212   67.9557 N   0  0  0  0  0  0  0  0  0  0  0  0
   -9.5450   16.2958   67.0814 C   0  0  0  0  0  0  0  0  0  0  0  0
  -10.8644   16.0907   71.0374 C   0  0  0  0  0  0  0  0  0  0  0  0
   -8.5330   18.4792   67.4604 C   0  0  0  0  0  0  0  0  0  0  0  0
   -9.5433   18.2987   69.9938 O   0  0  0  0  0  0  0  0  0  0  0  0
   -9.1481   16.2876   65.9124 O   0  0  0  0  0  0  0  0  0  0  0  0
  -10.7304   14.0247   66.8209 C   0  0  0  0  0  0  0  0  0  0  0  0
  -11.1003   13.0895   66.2465 N   0  0  0  0  0  0  0  0  0  0  0  0
   -7.0275   18.2876   67.7219 C   0  0  0  0  0  0  0  0  0  0  0  0
  -10.0126   16.3511   72.1395 C   0  0  0  0  0  0  0  0  0  0  0  0
  -10.4883   16.2212   73.4591 C   0  0  0  0  0  0  0  0  0  0  0  0
  -11.8103   15.8022   73.6966 C   0  0  0  0  0  0  0  0  0  0  0  0
  -12.6594   15.5153   72.6113 C   0  0  0  0  0  0  0  0  0  0  0  0
  -12.1896   15.6561   71.2886 C   0  0  0  0  0  0  0  0  0  0  0  0
  -12.2768   15.6000   75.1088 C   0  0  0  0  0  0  0  0  0  0  0  0
   -6.4522   19.3092   67.8826 C   0  0  0  0  0  0  0  0  0  0  0  0
  -12.5808   16.5955   75.6954 O   0  0  0  0  0  0  0  0  0  0  0  0
  -11.8948   14.5567   75.6573 O   0  0  0  0  0  0  0  0  0  0  0  0
   -6.0859   19.5172   69.0866 C   0  0  0  0  0  0  0  0  0  0  0  0
   -4.9412   20.3740   69.5022 C   0  0  0  0  0  0  0  0  0  0  0  0
   -4.1346   20.8981   68.4696 C   0  0  0  0  0  0  0  0  0  0  0  0
   -4.2678   20.4720   67.1543 C   0  0  0  0  0  0  0  0  0  0  0  0
   -5.4550   19.7232   66.8334 C   0  0  0  0  0  0  0  0  0  0  0  0
   -5.7143   19.4407   65.3905 C   0  0  0  0  0  0  0  0  0  0  0  0
  1  2  2  0
  1  6  1  0
  1 11  1  0
  2  3  1  0
  3  4  1  0
  3  7  1  0
  4  9  2  0
  4  5  1  0
  5  6  1  0
  5  8  1  0
  6 10  2  0
  8 13  1  0
 11 12  3  0
 16 19  1  0
 13 20  1  0
 19 21  2  0
 19 22  1  0
 27 28  1  0
 20 23  2  0
 23 24  1  0
 24 25  2  0
 25 26  1  0
 26 27  2  0
 27 20  1  0
  7 18  2  0
 18 17  1  0
 17 16  2  0
 16 15  1  0
 15 14  2  0
 14  7  1  0
M  END

$$$$
No_440-gen_results_new/Mpro_initial_molecule_p3/2024-06-19-20-31-25/
     RDKit          3D

 28 30  0  0  0  0  0  0  0  0999 V2000
  -10.3383   15.1532   67.5971 C   0  0  0  0  0  0  0  0  0  0  0  0
  -10.7220   15.1619   68.8301 N   0  0  0  0  0  0  0  0  0  0  0  0
  -10.4044   16.2024   69.6852 N   0  0  0  0  0  0  0  0  0  0  0  0
   -9.7271   17.3221   69.2607 C   0  0  0  0  0  0  0  0  0  0  0  0
   -9.3095   17.3212   67.9557 N   0  0  0  0  0  0  0  0  0  0  0  0
   -9.5450   16.2958   67.0814 C   0  0  0  0  0  0  0  0  0  0  0  0
  -10.8644   16.0907   71.0374 C   0  0  0  0  0  0  0  0  0  0  0  0
   -8.5330   18.4792   67.4604 C   0  0  0  0  0  0  0  0  0  0  0  0
   -9.5433   18.2987   69.9938 O   0  0  0  0  0  0  0  0  0  0  0  0
   -9.1481   16.2876   65.9124 O   0  0  0  0  0  0  0  0  0  0  0  0
  -10.7304   14.0247   66.8209 C   0  0  0  0  0  0  0  0  0  0  0  0
  -11.1003   13.0895   66.2465 N   0  0  0  0  0  0  0  0  0  0  0  0
   -7.0275   18.2876   67.7219 C   0  0  0  0  0  0  0  0  0  0  0  0
  -10.0126   16.3511   72.1395 C   0  0  0  0  0  0  0  0  0  0  0  0
  -10.4883   16.2212   73.4591 C   0  0  0  0  0  0  0  0  0  0  0  0
  -11.8103   15.8022   73.6966 C   0  0  0  0  0  0  0  0  0  0  0  0
  -12.6594   15.5153   72.6113 C   0  0  0  0  0  0  0  0  0  0  0  0
  -12.1896   15.6561   71.2886 C   0  0  0  0  0  0  0  0  0  0  0  0
  -12.2768   15.6000   75.1088 C   0  0  0  0  0  0  0  0  0  0  0  0
   -6.3059   19.3590   66.9154 C   0  0  0  0  0  0  0  0  0  0  0  0
   -4.9893   19.4432   66.9685 C   0  0  0  0  0  0  0  0  0  0  0  0
   -4.2977   20.4624   66.3233 C   0  0  0  0  0  0  0  0  0  0  0  0
   -5.0487   21.4852   65.8935 N   0  0  0  0  0  0  0  0  0  0  0  0
   -6.4109   21.4129   65.7935 C   0  0  0  0  0  0  0  0  0  0  0  0
   -7.0837   20.3875   66.3400 C   0  0  0  0  0  0  0  0  0  0  0  0
  -12.9861   16.5595   75.4323 F   0  0  0  0  0  0  0  0  0  0  0  0
  -11.2725   15.5004   75.8806 F   0  0  0  0  0  0  0  0  0  0  0  0
  -13.0978   14.4895   74.9597 F   0  0  0  0  0  0  0  0  0  0  0  0
  1  2  2  0
  1  6  1  0
  1 11  1  0
  2  3  1  0
  3  4  1  0
  3  7  1  0
  4  9  2  0
  4  5  1  0
  5  6  1  0
  5  8  1  0
  6 10  2  0
  8 13  1  0
 11 12  3  0
 16 19  1  0
 13 20  1  0
 19 26  1  0
 19 27  1  0
 19 28  1  0
 20 21  2  0
 21 22  1  0
 22 23  2  0
 23 24  1  0
 24 25  2  0
 25 20  1  0
  7 18  2  0
 18 17  1  0
 17 16  2  0
 16 15  1  0
 15 14  2  0
 14  7  1  0
M  END

$$$$
No_441-gen_results_new/Mpro_initial_molecule_p3/2024-06-19-20-31-25/
     RDKit          3D

 28 30  0  0  0  0  0  0  0  0999 V2000
  -10.3383   15.1532   67.5971 C   0  0  0  0  0  0  0  0  0  0  0  0
  -10.7220   15.1619   68.8301 N   0  0  0  0  0  0  0  0  0  0  0  0
  -10.4044   16.2024   69.6852 N   0  0  0  0  0  0  0  0  0  0  0  0
   -9.7271   17.3221   69.2607 C   0  0  0  0  0  0  0  0  0  0  0  0
   -9.3095   17.3212   67.9557 N   0  0  0  0  0  0  0  0  0  0  0  0
   -9.5450   16.2958   67.0814 C   0  0  0  0  0  0  0  0  0  0  0  0
  -10.8644   16.0907   71.0374 C   0  0  0  0  0  0  0  0  0  0  0  0
   -8.5330   18.4792   67.4604 C   0  0  0  0  0  0  0  0  0  0  0  0
   -9.5433   18.2987   69.9938 O   0  0  0  0  0  0  0  0  0  0  0  0
   -9.1481   16.2876   65.9124 O   0  0  0  0  0  0  0  0  0  0  0  0
  -10.7304   14.0247   66.8209 C   0  0  0  0  0  0  0  0  0  0  0  0
  -11.1003   13.0895   66.2465 N   0  0  0  0  0  0  0  0  0  0  0  0
   -7.0275   18.2876   67.7219 C   0  0  0  0  0  0  0  0  0  0  0  0
  -10.0126   16.3511   72.1395 C   0  0  0  0  0  0  0  0  0  0  0  0
  -10.4883   16.2212   73.4591 C   0  0  0  0  0  0  0  0  0  0  0  0
  -11.8103   15.8022   73.6966 C   0  0  0  0  0  0  0  0  0  0  0  0
  -12.6594   15.5153   72.6113 C   0  0  0  0  0  0  0  0  0  0  0  0
  -12.1896   15.6561   71.2886 C   0  0  0  0  0  0  0  0  0  0  0  0
  -12.2768   15.6000   75.1088 C   0  0  0  0  0  0  0  0  0  0  0  0
   -6.4522   19.3092   67.8826 C   0  0  0  0  0  0  0  0  0  0  0  0
  -11.9783   16.5270   75.8867 N   0  0  0  0  0  0  0  0  0  0  0  0
   -5.0150   19.2525   67.8410 N   0  0  0  0  0  0  0  0  0  0  0  0
   -4.2491   20.2627   67.7899 C   0  0  0  0  0  0  0  0  0  0  0  0
   -2.9111   20.0428   67.2932 C   0  0  0  0  0  0  0  0  0  0  0  0
   -2.5919   19.1512   66.9124 C   0  0  0  0  0  0  0  0  0  0  0  0
   -3.3171   17.9516   66.8648 C   0  0  0  0  0  0  0  0  0  0  0  0
   -4.6557   18.0274   67.1825 C   0  0  0  0  0  0  0  0  0  0  0  0
   -6.9315   20.3676   68.3878 O   0  0  0  0  0  0  0  0  0  0  0  0
  1  2  2  0
  1  6  1  0
  1 11  1  0
  2  3  1  0
  3  4  1  0
  3  7  1  0
  4  9  2  0
  4  5  1  0
  5  6  1  0
  5  8  1  0
  6 10  2  0
  8 13  1  0
 11 12  3  0
 16 19  1  0
 13 20  1  0
 19 21  1  0
 20 22  1  0
 22 23  1  0
 24 25  1  0
 22 27  1  0
 26 27  1  0
 20 28  2  0
 23 24  1  0
 25 26  1  0
  7 18  2  0
 18 17  1  0
 17 16  2  0
 16 15  1  0
 15 14  2  0
 14  7  1  0
M  END

$$$$
No_442-gen_results_new/Mpro_initial_molecule_p3/2024-06-19-20-31-25/
     RDKit          3D

 28 30  0  0  0  0  0  0  0  0999 V2000
  -10.3383   15.1532   67.5971 C   0  0  0  0  0  0  0  0  0  0  0  0
  -10.7220   15.1619   68.8301 N   0  0  0  0  0  0  0  0  0  0  0  0
  -10.4044   16.2024   69.6852 N   0  0  0  0  0  0  0  0  0  0  0  0
   -9.7271   17.3221   69.2607 C   0  0  0  0  0  0  0  0  0  0  0  0
   -9.3095   17.3212   67.9557 N   0  0  0  0  0  0  0  0  0  0  0  0
   -9.5450   16.2958   67.0814 C   0  0  0  0  0  0  0  0  0  0  0  0
  -10.8644   16.0907   71.0374 C   0  0  0  0  0  0  0  0  0  0  0  0
   -8.5330   18.4792   67.4604 C   0  0  0  0  0  0  0  0  0  0  0  0
   -9.5433   18.2987   69.9938 O   0  0  0  0  0  0  0  0  0  0  0  0
   -9.1481   16.2876   65.9124 O   0  0  0  0  0  0  0  0  0  0  0  0
  -10.7304   14.0247   66.8209 C   0  0  0  0  0  0  0  0  0  0  0  0
  -11.1003   13.0895   66.2465 N   0  0  0  0  0  0  0  0  0  0  0  0
   -7.0275   18.2876   67.7219 C   0  0  0  0  0  0  0  0  0  0  0  0
  -10.0126   16.3511   72.1395 C   0  0  0  0  0  0  0  0  0  0  0  0
  -10.4883   16.2212   73.4591 C   0  0  0  0  0  0  0  0  0  0  0  0
  -11.8103   15.8022   73.6966 C   0  0  0  0  0  0  0  0  0  0  0  0
  -12.6594   15.5153   72.6113 C   0  0  0  0  0  0  0  0  0  0  0  0
  -12.1896   15.6561   71.2886 C   0  0  0  0  0  0  0  0  0  0  0  0
  -12.3486   15.5799   75.3255 Cl  0  0  0  0  0  0  0  0  0  0  0  0
   -6.3058   19.3592   66.9157 C   0  0  0  0  0  0  0  0  0  0  0  0
   -5.0306   19.3685   67.0004 N   0  0  0  0  0  0  0  0  0  0  0  0
   -6.8783   20.2731   66.3134 O   0  0  0  0  0  0  0  0  0  0  0  0
   -4.1662   20.3230   66.4016 C   0  0  0  0  0  0  0  0  0  0  0  0
   -4.1072   21.3488   66.8933 C   0  0  0  0  0  0  0  0  0  0  0  0
   -3.7807   22.3791   66.0285 N   0  0  0  0  0  0  0  0  0  0  0  0
   -3.5698   22.0830   64.6991 C   0  0  0  0  0  0  0  0  0  0  0  0
   -3.6556   20.9337   64.1708 C   0  0  0  0  0  0  0  0  0  0  0  0
   -4.1116   19.8847   64.9915 C   0  0  0  0  0  0  0  0  0  0  0  0
  1  2  2  0
  1  6  1  0
  1 11  1  0
  2  3  1  0
  3  4  1  0
  3  7  1  0
  4  9  2  0
  4  5  1  0
  5  6  1  0
  5  8  1  0
  6 10  2  0
  8 13  1  0
 11 12  3  0
 16 19  1  0
 13 20  1  0
 20 21  1  0
 20 22  2  0
 21 23  1  0
 23 24  2  0
 24 25  1  0
 25 26  2  0
 26 27  1  0
 27 28  2  0
 28 23  1  0
  7 18  2  0
 18 17  1  0
 17 16  2  0
 16 15  1  0
 15 14  2  0
 14  7  1  0
M  END

$$$$
No_443-gen_results_new/Mpro_initial_molecule_p3/2024-06-19-20-31-25/
     RDKit          3D

 26 28  0  0  0  0  0  0  0  0999 V2000
  -10.3383   15.1532   67.5971 C   0  0  0  0  0  0  0  0  0  0  0  0
  -10.7220   15.1619   68.8301 N   0  0  0  0  0  0  0  0  0  0  0  0
  -10.4044   16.2024   69.6852 N   0  0  0  0  0  0  0  0  0  0  0  0
   -9.7271   17.3221   69.2607 C   0  0  0  0  0  0  0  0  0  0  0  0
   -9.3095   17.3212   67.9557 N   0  0  0  0  0  0  0  0  0  0  0  0
   -9.5450   16.2958   67.0814 C   0  0  0  0  0  0  0  0  0  0  0  0
  -10.8644   16.0907   71.0374 C   0  0  0  0  0  0  0  0  0  0  0  0
   -8.5330   18.4792   67.4604 C   0  0  0  0  0  0  0  0  0  0  0  0
   -9.5433   18.2987   69.9938 O   0  0  0  0  0  0  0  0  0  0  0  0
   -9.1481   16.2876   65.9124 O   0  0  0  0  0  0  0  0  0  0  0  0
  -10.7304   14.0247   66.8209 C   0  0  0  0  0  0  0  0  0  0  0  0
  -11.1003   13.0895   66.2465 N   0  0  0  0  0  0  0  0  0  0  0  0
   -7.0275   18.2876   67.7219 C   0  0  0  0  0  0  0  0  0  0  0  0
  -10.0126   16.3511   72.1395 C   0  0  0  0  0  0  0  0  0  0  0  0
  -10.4883   16.2212   73.4591 C   0  0  0  0  0  0  0  0  0  0  0  0
  -11.8103   15.8022   73.6966 C   0  0  0  0  0  0  0  0  0  0  0  0
  -12.6594   15.5153   72.6113 C   0  0  0  0  0  0  0  0  0  0  0  0
  -12.1896   15.6561   71.2886 C   0  0  0  0  0  0  0  0  0  0  0  0
  -12.3486   15.5799   75.3255 Cl  0  0  0  0  0  0  0  0  0  0  0  0
   -6.4523   19.3079   67.8835 C   0  0  0  0  0  0  0  0  0  0  0  0
   -6.2032   19.5449   69.0280 C   0  0  0  0  0  0  0  0  0  0  0  0
   -5.1755   20.5072   69.4322 N   0  0  0  0  0  0  0  0  0  0  0  0
   -5.3217   19.6205   66.9729 C   0  0  0  0  0  0  0  0  0  0  0  0
   -4.3716   20.1060   67.3540 C   0  0  0  0  0  0  0  0  0  0  0  0
   -3.3423   20.8324   66.3810 C   0  0  0  0  0  0  0  0  0  0  0  0
   -4.1933   20.6958   68.6148 C   0  0  0  0  0  0  0  0  0  0  0  0
  1  2  2  0
  1  6  1  0
  1 11  1  0
  2  3  1  0
  3  4  1  0
  3  7  1  0
  4  9  2  0
  4  5  1  0
  5  6  1  0
  5  8  1  0
  6 10  2  0
  8 13  1  0
 11 12  3  0
 16 19  1  0
 13 20  1  0
 25 24  1  0
 20 21  2  0
 21 22  1  0
 22 26  2  0
 26 24  1  0
 24 23  2  0
 23 20  1  0
  7 18  2  0
 18 17  1  0
 17 16  2  0
 16 15  1  0
 15 14  2  0
 14  7  1  0
M  END

$$$$
No_444-gen_results_new/Mpro_initial_molecule_p3/2024-06-19-20-31-25/
     RDKit          3D

 28 30  0  0  0  0  0  0  0  0999 V2000
  -10.3383   15.1532   67.5971 C   0  0  0  0  0  0  0  0  0  0  0  0
  -10.7220   15.1619   68.8301 N   0  0  0  0  0  0  0  0  0  0  0  0
  -10.4044   16.2024   69.6852 N   0  0  0  0  0  0  0  0  0  0  0  0
   -9.7271   17.3221   69.2607 C   0  0  0  0  0  0  0  0  0  0  0  0
   -9.3095   17.3212   67.9557 N   0  0  0  0  0  0  0  0  0  0  0  0
   -9.5450   16.2958   67.0814 C   0  0  0  0  0  0  0  0  0  0  0  0
  -10.8644   16.0907   71.0374 C   0  0  0  0  0  0  0  0  0  0  0  0
   -8.5330   18.4792   67.4604 C   0  0  0  0  0  0  0  0  0  0  0  0
   -9.5433   18.2987   69.9938 O   0  0  0  0  0  0  0  0  0  0  0  0
   -9.1481   16.2876   65.9124 O   0  0  0  0  0  0  0  0  0  0  0  0
  -10.7304   14.0247   66.8209 C   0  0  0  0  0  0  0  0  0  0  0  0
  -11.1003   13.0895   66.2465 N   0  0  0  0  0  0  0  0  0  0  0  0
   -7.0275   18.2876   67.7219 C   0  0  0  0  0  0  0  0  0  0  0  0
  -10.0126   16.3511   72.1395 C   0  0  0  0  0  0  0  0  0  0  0  0
  -10.4883   16.2212   73.4591 C   0  0  0  0  0  0  0  0  0  0  0  0
  -11.8103   15.8022   73.6966 C   0  0  0  0  0  0  0  0  0  0  0  0
  -12.6594   15.5153   72.6113 C   0  0  0  0  0  0  0  0  0  0  0  0
  -12.1896   15.6561   71.2886 C   0  0  0  0  0  0  0  0  0  0  0  0
  -12.2768   15.6000   75.1088 C   0  0  0  0  0  0  0  0  0  0  0  0
   -6.5341   17.3729   68.3685 C   0  0  0  0  0  0  0  0  0  0  0  0
   -7.3548   16.1044   69.3523 Cl  0  0  0  0  0  0  0  0  0  0  0  0
  -11.9657   16.3145   75.9337 O   0  0  0  0  0  0  0  0  0  0  0  0
  -12.4491   14.3578   75.4055 O   0  0  0  0  0  0  0  0  0  0  0  0
   -5.1148   17.3633   68.6440 C   0  0  0  0  0  0  0  0  0  0  0  0
   -6.2116   19.2905   67.1909 C   0  0  0  0  0  0  0  0  0  0  0  0
   -4.3494   16.4014   69.4697 C   0  0  0  0  0  0  0  0  0  0  0  0
   -5.1887   19.4069   67.3091 C   0  0  0  0  0  0  0  0  0  0  0  0
   -4.3475   18.4019   68.0841 C   0  0  0  0  0  0  0  0  0  0  0  0
  1  2  2  0
  1  6  1  0
  1 11  1  0
  2  3  1  0
  3  4  1  0
  3  7  1  0
  4  9  2  0
  4  5  1  0
  5  6  1  0
  5  8  1  0
  6 10  2  0
  8 13  1  0
 11 12  3  0
 16 19  1  0
 20 21  1  0
 19 22  2  0
 19 23  1  0
 24 26  1  0
 13 20  2  0
 20 24  1  0
 24 28  2  0
 28 27  1  0
 27 25  2  0
 25 13  1  0
  7 18  2  0
 18 17  1  0
 17 16  2  0
 16 15  1  0
 15 14  2  0
 14  7  1  0
M  END

$$$$
No_445-gen_results_new/Mpro_initial_molecule_p3/2024-06-19-20-31-25/
     RDKit          3D

 28 30  0  0  0  0  0  0  0  0999 V2000
  -10.3383   15.1532   67.5971 C   0  0  0  0  0  0  0  0  0  0  0  0
  -10.7220   15.1619   68.8301 N   0  0  0  0  0  0  0  0  0  0  0  0
  -10.4044   16.2024   69.6852 N   0  0  0  0  0  0  0  0  0  0  0  0
   -9.7271   17.3221   69.2607 C   0  0  0  0  0  0  0  0  0  0  0  0
   -9.3095   17.3212   67.9557 N   0  0  0  0  0  0  0  0  0  0  0  0
   -9.5450   16.2958   67.0814 C   0  0  0  0  0  0  0  0  0  0  0  0
  -10.8644   16.0907   71.0374 C   0  0  0  0  0  0  0  0  0  0  0  0
   -8.5330   18.4792   67.4604 C   0  0  0  0  0  0  0  0  0  0  0  0
   -9.5433   18.2987   69.9938 O   0  0  0  0  0  0  0  0  0  0  0  0
   -9.1481   16.2876   65.9124 O   0  0  0  0  0  0  0  0  0  0  0  0
  -10.7304   14.0247   66.8209 C   0  0  0  0  0  0  0  0  0  0  0  0
  -11.1003   13.0895   66.2465 N   0  0  0  0  0  0  0  0  0  0  0  0
   -7.0275   18.2876   67.7219 C   0  0  0  0  0  0  0  0  0  0  0  0
  -10.0126   16.3511   72.1395 C   0  0  0  0  0  0  0  0  0  0  0  0
  -10.4883   16.2212   73.4591 C   0  0  0  0  0  0  0  0  0  0  0  0
  -11.8103   15.8022   73.6966 C   0  0  0  0  0  0  0  0  0  0  0  0
  -12.6594   15.5153   72.6113 C   0  0  0  0  0  0  0  0  0  0  0  0
  -12.1896   15.6561   71.2886 C   0  0  0  0  0  0  0  0  0  0  0  0
  -12.3486   15.5799   75.3255 Cl  0  0  0  0  0  0  0  0  0  0  0  0
   -6.4523   19.3079   67.8835 C   0  0  0  0  0  0  0  0  0  0  0  0
   -6.2032   19.5449   69.0280 C   0  0  0  0  0  0  0  0  0  0  0  0
   -5.0283   20.3340   69.5330 C   0  0  0  0  0  0  0  0  0  0  0  0
   -4.6216   20.2725   70.8860 C   0  0  0  0  0  0  0  0  0  0  0  0
   -5.5219   19.7784   71.8835 C   0  0  0  0  0  0  0  0  0  0  0  0
   -6.6052   19.0288   71.4849 C   0  0  0  0  0  0  0  0  0  0  0  0
   -6.9518   18.9615   70.1437 C   0  0  0  0  0  0  0  0  0  0  0  0
   -6.7706   20.3589   67.1928 O   0  0  0  0  0  0  0  0  0  0  0  0
   -7.3704   18.5590   72.5441 O   0  0  0  0  0  0  0  0  0  0  0  0
  1  2  2  0
  1  6  1  0
  1 11  1  0
  2  3  1  0
  3  4  1  0
  3  7  1  0
  4  9  2  0
  4  5  1  0
  5  6  1  0
  5  8  1  0
  6 10  2  0
  8 13  1  0
 11 12  3  0
 16 19  1  0
 13 20  1  0
 20 21  1  0
 20 27  2  0
 25 28  1  0
  7 18  2  0
 18 17  1  0
 17 16  2  0
 16 15  1  0
 15 14  2  0
 14  7  1  0
 21 22  2  0
 22 23  1  0
 23 24  2  0
 24 25  1  0
 25 26  2  0
 26 21  1  0
M  END

$$$$
No_446-gen_results_new/Mpro_initial_molecule_p3/2024-06-19-20-31-25/
     RDKit          3D

 28 30  0  0  0  0  0  0  0  0999 V2000
  -10.3383   15.1532   67.5971 C   0  0  0  0  0  0  0  0  0  0  0  0
  -10.7220   15.1619   68.8301 N   0  0  0  0  0  0  0  0  0  0  0  0
  -10.4044   16.2024   69.6852 N   0  0  0  0  0  0  0  0  0  0  0  0
   -9.7271   17.3221   69.2607 C   0  0  0  0  0  0  0  0  0  0  0  0
   -9.3095   17.3212   67.9557 N   0  0  0  0  0  0  0  0  0  0  0  0
   -9.5450   16.2958   67.0814 C   0  0  0  0  0  0  0  0  0  0  0  0
  -10.8644   16.0907   71.0374 C   0  0  0  0  0  0  0  0  0  0  0  0
   -8.5330   18.4792   67.4604 C   0  0  0  0  0  0  0  0  0  0  0  0
   -9.5433   18.2987   69.9938 O   0  0  0  0  0  0  0  0  0  0  0  0
   -9.1481   16.2876   65.9124 O   0  0  0  0  0  0  0  0  0  0  0  0
  -10.7304   14.0247   66.8209 C   0  0  0  0  0  0  0  0  0  0  0  0
  -11.1003   13.0895   66.2465 N   0  0  0  0  0  0  0  0  0  0  0  0
   -7.0275   18.2876   67.7219 C   0  0  0  0  0  0  0  0  0  0  0  0
  -10.0126   16.3511   72.1395 C   0  0  0  0  0  0  0  0  0  0  0  0
  -10.4883   16.2212   73.4591 C   0  0  0  0  0  0  0  0  0  0  0  0
  -11.8103   15.8022   73.6966 C   0  0  0  0  0  0  0  0  0  0  0  0
  -12.6594   15.5153   72.6113 C   0  0  0  0  0  0  0  0  0  0  0  0
  -12.1896   15.6561   71.2886 C   0  0  0  0  0  0  0  0  0  0  0  0
  -12.3486   15.5799   75.3255 Cl  0  0  0  0  0  0  0  0  0  0  0  0
   -6.5558   17.2018   67.9045 O   0  0  0  0  0  0  0  0  0  0  0  0
   -6.3090   19.3658   67.4558 N   0  0  0  0  0  0  0  0  0  0  0  0
   -5.0861   19.8317   67.3904 C   0  0  0  0  0  0  0  0  0  0  0  0
   -4.3998   19.9209   68.6167 C   0  0  0  0  0  0  0  0  0  0  0  0
   -3.3616   19.4466   68.8479 C   0  0  0  0  0  0  0  0  0  0  0  0
   -4.7608   20.6420   66.5168 N   0  0  0  0  0  0  0  0  0  0  0  0
   -3.2861   20.6373   66.4821 C   0  0  0  0  0  0  0  0  0  0  0  0
   -2.5228   20.2562   67.5466 C   0  0  0  0  0  0  0  0  0  0  0  0
   -5.3575   19.6311   69.9878 C   0  0  0  0  0  0  0  0  0  0  0  0
  1  2  2  0
  1  6  1  0
  1 11  1  0
  2  3  1  0
  3  4  1  0
  3  7  1  0
  4  9  2  0
  4  5  1  0
  5  6  1  0
  5  8  1  0
  6 10  2  0
  8 13  1  0
 11 12  3  0
 16 19  1  0
 13 20  2  0
 13 21  1  0
 21 22  1  0
 23 28  1  0
  7 18  2  0
 18 17  1  0
 17 16  2  0
 16 15  1  0
 15 14  2  0
 14  7  1  0
 22 23  2  0
 23 24  1  0
 24 27  2  0
 27 26  1  0
 26 25  2  0
 25 22  1  0
M  END

$$$$
No_447-gen_results_new/Mpro_initial_molecule_p3/2024-06-19-20-31-25/
     RDKit          3D

 28 30  0  0  0  0  0  0  0  0999 V2000
  -10.3383   15.1532   67.5971 C   0  0  0  0  0  0  0  0  0  0  0  0
  -10.7220   15.1619   68.8301 N   0  0  0  0  0  0  0  0  0  0  0  0
  -10.4044   16.2024   69.6852 N   0  0  0  0  0  0  0  0  0  0  0  0
   -9.7271   17.3221   69.2607 C   0  0  0  0  0  0  0  0  0  0  0  0
   -9.3095   17.3212   67.9557 N   0  0  0  0  0  0  0  0  0  0  0  0
   -9.5450   16.2958   67.0814 C   0  0  0  0  0  0  0  0  0  0  0  0
  -10.8644   16.0907   71.0374 C   0  0  0  0  0  0  0  0  0  0  0  0
   -8.5330   18.4792   67.4604 C   0  0  0  0  0  0  0  0  0  0  0  0
   -9.5433   18.2987   69.9938 O   0  0  0  0  0  0  0  0  0  0  0  0
   -9.1481   16.2876   65.9124 O   0  0  0  0  0  0  0  0  0  0  0  0
  -10.7304   14.0247   66.8209 C   0  0  0  0  0  0  0  0  0  0  0  0
  -11.1003   13.0895   66.2465 N   0  0  0  0  0  0  0  0  0  0  0  0
   -7.0275   18.2876   67.7219 C   0  0  0  0  0  0  0  0  0  0  0  0
  -10.0126   16.3511   72.1395 C   0  0  0  0  0  0  0  0  0  0  0  0
  -10.4883   16.2212   73.4591 C   0  0  0  0  0  0  0  0  0  0  0  0
  -11.8103   15.8022   73.6966 C   0  0  0  0  0  0  0  0  0  0  0  0
  -12.6594   15.5153   72.6113 C   0  0  0  0  0  0  0  0  0  0  0  0
  -12.1896   15.6561   71.2886 C   0  0  0  0  0  0  0  0  0  0  0  0
  -12.3486   15.5799   75.3255 Cl  0  0  0  0  0  0  0  0  0  0  0  0
   -6.5558   17.2018   67.9045 O   0  0  0  0  0  0  0  0  0  0  0  0
   -6.4130   19.3147   68.0692 N   0  0  0  0  0  0  0  0  0  0  0  0
   -5.0756   19.6793   68.2968 C   0  0  0  0  0  0  0  0  0  0  0  0
   -4.7671   19.6580   69.6590 C   0  0  0  0  0  0  0  0  0  0  0  0
   -3.3674   19.9416   69.9991 C   0  0  0  0  0  0  0  0  0  0  0  0
   -2.9158   19.7699   71.3053 C   0  0  0  0  0  0  0  0  0  0  0  0
   -3.8289   19.6128   72.3255 N   0  0  0  0  0  0  0  0  0  0  0  0
   -5.1362   19.4935   72.0598 C   0  0  0  0  0  0  0  0  0  0  0  0
   -5.6161   19.4902   70.5672 C   0  0  0  0  0  0  0  0  0  0  0  0
  1  2  2  0
  1  6  1  0
  1 11  1  0
  2  3  1  0
  3  4  1  0
  3  7  1  0
  4  9  2  0
  4  5  1  0
  5  6  1  0
  5  8  1  0
  6 10  2  0
  8 13  1  0
 11 12  3  0
 16 19  1  0
 13 20  2  0
 13 21  1  0
 21 22  1  0
 22 23  1  0
 23 24  2  0
 24 25  1  0
 25 26  2  0
 26 27  1  0
 27 28  2  0
 28 23  1  0
  7 18  2  0
 18 17  1  0
 17 16  2  0
 16 15  1  0
 15 14  2  0
 14  7  1  0
M  END

$$$$
No_448-gen_results_new/Mpro_initial_molecule_p3/2024-06-19-20-31-25/
     RDKit          3D

 28 30  0  0  0  0  0  0  0  0999 V2000
  -10.3383   15.1532   67.5971 C   0  0  0  0  0  0  0  0  0  0  0  0
  -10.7220   15.1619   68.8301 N   0  0  0  0  0  0  0  0  0  0  0  0
  -10.4044   16.2024   69.6852 N   0  0  0  0  0  0  0  0  0  0  0  0
   -9.7271   17.3221   69.2607 C   0  0  0  0  0  0  0  0  0  0  0  0
   -9.3095   17.3212   67.9557 N   0  0  0  0  0  0  0  0  0  0  0  0
   -9.5450   16.2958   67.0814 C   0  0  0  0  0  0  0  0  0  0  0  0
  -10.8644   16.0907   71.0374 C   0  0  0  0  0  0  0  0  0  0  0  0
   -8.5330   18.4792   67.4604 C   0  0  0  0  0  0  0  0  0  0  0  0
   -9.5433   18.2987   69.9938 O   0  0  0  0  0  0  0  0  0  0  0  0
   -9.1481   16.2876   65.9124 O   0  0  0  0  0  0  0  0  0  0  0  0
  -10.7304   14.0247   66.8209 C   0  0  0  0  0  0  0  0  0  0  0  0
  -11.1003   13.0895   66.2465 N   0  0  0  0  0  0  0  0  0  0  0  0
   -7.0275   18.2876   67.7219 C   0  0  0  0  0  0  0  0  0  0  0  0
  -10.0126   16.3511   72.1395 C   0  0  0  0  0  0  0  0  0  0  0  0
  -10.4883   16.2212   73.4591 C   0  0  0  0  0  0  0  0  0  0  0  0
  -11.8103   15.8022   73.6966 C   0  0  0  0  0  0  0  0  0  0  0  0
  -12.6594   15.5153   72.6113 C   0  0  0  0  0  0  0  0  0  0  0  0
  -12.1896   15.6561   71.2886 C   0  0  0  0  0  0  0  0  0  0  0  0
  -12.2484   15.6088   75.0145 O   0  0  0  0  0  0  0  0  0  0  0  0
   -6.5341   17.3731   68.3686 C   0  0  0  0  0  0  0  0  0  0  0  0
   -5.1307   17.1884   68.5569 C   0  0  0  0  0  0  0  0  0  0  0  0
   -6.2283   19.1886   66.9090 C   0  0  0  0  0  0  0  0  0  0  0  0
   -4.8273   19.0035   67.0389 C   0  0  0  0  0  0  0  0  0  0  0  0
   -4.3060   18.0196   67.7978 C   0  0  0  0  0  0  0  0  0  0  0  0
  -11.8770   16.5248   75.9058 C   0  0  0  0  0  0  0  0  0  0  0  0
  -13.9763   14.9528   72.7883 O   0  0  0  0  0  0  0  0  0  0  0  0
   -6.7630   20.1609   66.1397 F   0  0  0  0  0  0  0  0  0  0  0  0
   -4.6457   16.1643   69.3390 F   0  0  0  0  0  0  0  0  0  0  0  0
  1  2  2  0
  1  6  1  0
  1 11  1  0
  2  3  1  0
  3  4  1  0
  3  7  1  0
  4  9  2  0
  4  5  1  0
  5  6  1  0
  5  8  1  0
  6 10  2  0
  8 13  1  0
 11 12  3  0
 16 19  1  0
 19 25  1  0
 17 26  1  0
 22 27  1  0
 21 28  1  0
 13 20  2  0
 20 21  1  0
 21 24  2  0
 24 23  1  0
 23 22  2  0
 22 13  1  0
  7 18  2  0
 18 17  1  0
 17 16  2  0
 16 15  1  0
 15 14  2  0
 14  7  1  0
M  END

$$$$
No_449-gen_results_new/Mpro_initial_molecule_p3/2024-06-19-20-31-25/
     RDKit          3D

 28 30  0  0  0  0  0  0  0  0999 V2000
  -10.3383   15.1532   67.5971 C   0  0  0  0  0  0  0  0  0  0  0  0
  -10.7220   15.1619   68.8301 N   0  0  0  0  0  0  0  0  0  0  0  0
  -10.4044   16.2024   69.6852 N   0  0  0  0  0  0  0  0  0  0  0  0
   -9.7271   17.3221   69.2607 C   0  0  0  0  0  0  0  0  0  0  0  0
   -9.3095   17.3212   67.9557 N   0  0  0  0  0  0  0  0  0  0  0  0
   -9.5450   16.2958   67.0814 C   0  0  0  0  0  0  0  0  0  0  0  0
  -10.8644   16.0907   71.0374 C   0  0  0  0  0  0  0  0  0  0  0  0
   -8.5330   18.4792   67.4604 C   0  0  0  0  0  0  0  0  0  0  0  0
   -9.5433   18.2987   69.9938 O   0  0  0  0  0  0  0  0  0  0  0  0
   -9.1481   16.2876   65.9124 O   0  0  0  0  0  0  0  0  0  0  0  0
  -10.7304   14.0247   66.8209 C   0  0  0  0  0  0  0  0  0  0  0  0
  -11.1003   13.0895   66.2465 N   0  0  0  0  0  0  0  0  0  0  0  0
   -7.0275   18.2876   67.7219 C   0  0  0  0  0  0  0  0  0  0  0  0
  -10.0126   16.3511   72.1395 C   0  0  0  0  0  0  0  0  0  0  0  0
  -10.4883   16.2212   73.4591 C   0  0  0  0  0  0  0  0  0  0  0  0
  -11.8103   15.8022   73.6966 C   0  0  0  0  0  0  0  0  0  0  0  0
  -12.6594   15.5153   72.6113 C   0  0  0  0  0  0  0  0  0  0  0  0
  -12.1896   15.6561   71.2886 C   0  0  0  0  0  0  0  0  0  0  0  0
  -12.3486   15.5799   75.3255 Cl  0  0  0  0  0  0  0  0  0  0  0  0
   -6.4523   19.3079   67.8835 C   0  0  0  0  0  0  0  0  0  0  0  0
   -6.2032   19.5449   69.0280 C   0  0  0  0  0  0  0  0  0  0  0  0
   -5.0283   20.3340   69.5330 C   0  0  0  0  0  0  0  0  0  0  0  0
   -4.1491   20.7182   68.5748 C   0  0  0  0  0  0  0  0  0  0  0  0
   -4.2143   20.2841   67.2305 C   0  0  0  0  0  0  0  0  0  0  0  0
   -5.3299   19.5322   66.8708 C   0  0  0  0  0  0  0  0  0  0  0  0
   -3.2849   20.7487   66.1803 C   0  0  0  0  0  0  0  0  0  0  0  0
   -3.5658   20.3228   64.9234 C   0  0  0  0  0  0  0  0  0  0  0  0
   -4.7098   19.5068   64.4592 C   0  0  0  0  0  0  0  0  0  0  0  0
  1  2  2  0
  1  6  1  0
  1 11  1  0
  2  3  1  0
  3  4  1  0
  3  7  1  0
  4  9  2  0
  4  5  1  0
  5  6  1  0
  5  8  1  0
  6 10  2  0
  8 13  1  0
 11 12  3  0
 16 19  1  0
 13 20  1  0
 24 26  1  0
 26 27  2  3
 27 28  1  0
 20 21  2  0
 21 22  1  0
 22 23  2  0
 23 24  1  0
 24 25  2  0
 25 20  1  0
  7 18  2  0
 18 17  1  0
 17 16  2  0
 16 15  1  0
 15 14  2  0
 14  7  1  0
M  END

$$$$
No_450-gen_results_new/Mpro_initial_molecule_p3/2024-06-19-20-31-25/
     RDKit          3D

 28 30  0  0  0  0  0  0  0  0999 V2000
  -10.3383   15.1532   67.5971 C   0  0  0  0  0  0  0  0  0  0  0  0
  -10.7220   15.1619   68.8301 N   0  0  0  0  0  0  0  0  0  0  0  0
  -10.4044   16.2024   69.6852 N   0  0  0  0  0  0  0  0  0  0  0  0
   -9.7271   17.3221   69.2607 C   0  0  0  0  0  0  0  0  0  0  0  0
   -9.3095   17.3212   67.9557 N   0  0  0  0  0  0  0  0  0  0  0  0
   -9.5450   16.2958   67.0814 C   0  0  0  0  0  0  0  0  0  0  0  0
  -10.8644   16.0907   71.0374 C   0  0  0  0  0  0  0  0  0  0  0  0
   -8.5330   18.4792   67.4604 C   0  0  0  0  0  0  0  0  0  0  0  0
   -9.5433   18.2987   69.9938 O   0  0  0  0  0  0  0  0  0  0  0  0
   -9.1481   16.2876   65.9124 O   0  0  0  0  0  0  0  0  0  0  0  0
  -10.7304   14.0247   66.8209 C   0  0  0  0  0  0  0  0  0  0  0  0
  -11.1003   13.0895   66.2465 N   0  0  0  0  0  0  0  0  0  0  0  0
   -7.0275   18.2876   67.7219 C   0  0  0  0  0  0  0  0  0  0  0  0
  -10.0126   16.3511   72.1395 C   0  0  0  0  0  0  0  0  0  0  0  0
  -10.4883   16.2212   73.4591 C   0  0  0  0  0  0  0  0  0  0  0  0
  -11.8103   15.8022   73.6966 C   0  0  0  0  0  0  0  0  0  0  0  0
  -12.6594   15.5153   72.6113 C   0  0  0  0  0  0  0  0  0  0  0  0
  -12.1896   15.6561   71.2886 C   0  0  0  0  0  0  0  0  0  0  0  0
  -12.2768   15.6000   75.1088 C   0  0  0  0  0  0  0  0  0  0  0  0
   -6.5341   17.3729   68.3685 C   0  0  0  0  0  0  0  0  0  0  0  0
   -5.1249   17.1827   68.5818 C   0  0  0  0  0  0  0  0  0  0  0  0
   -4.4393   18.0516   67.8378 C   0  0  0  0  0  0  0  0  0  0  0  0
   -4.8689   19.0478   67.0695 C   0  0  0  0  0  0  0  0  0  0  0  0
   -6.2627   19.1643   66.9261 C   0  0  0  0  0  0  0  0  0  0  0  0
  -11.9765   16.5257   75.8854 N   0  0  0  0  0  0  0  0  0  0  0  0
  -12.3070   14.4520   75.4642 O   0  0  0  0  0  0  0  0  0  0  0  0
  -14.0782   14.9497   72.8305 C   0  0  0  0  0  0  0  0  0  0  0  0
   -4.0872   19.9304   66.3675 O   0  0  0  0  0  0  0  0  0  0  0  0
  1  2  2  0
  1  6  1  0
  1 11  1  0
  2  3  1  0
  3  4  1  0
  3  7  1  0
  4  9  2  0
  4  5  1  0
  5  6  1  0
  5  8  1  0
  6 10  2  0
  8 13  1  0
 11 12  3  0
 16 19  1  0
 19 25  1  0
 19 26  2  0
 17 27  1  0
 23 28  1  0
 13 20  2  0
 20 21  1  0
 21 22  2  0
 22 23  1  0
 23 24  2  0
 24 13  1  0
  7 18  2  0
 18 17  1  0
 17 16  2  0
 16 15  1  0
 15 14  2  0
 14  7  1  0
M  END

$$$$
No_451-gen_results_new/Mpro_initial_molecule_p3/2024-06-19-20-31-25/
     RDKit          3D

 28 30  0  0  0  0  0  0  0  0999 V2000
  -10.3383   15.1532   67.5971 C   0  0  0  0  0  0  0  0  0  0  0  0
  -10.7220   15.1619   68.8301 N   0  0  0  0  0  0  0  0  0  0  0  0
  -10.4044   16.2024   69.6852 N   0  0  0  0  0  0  0  0  0  0  0  0
   -9.7271   17.3221   69.2607 C   0  0  0  0  0  0  0  0  0  0  0  0
   -9.3095   17.3212   67.9557 N   0  0  0  0  0  0  0  0  0  0  0  0
   -9.5450   16.2958   67.0814 C   0  0  0  0  0  0  0  0  0  0  0  0
  -10.8644   16.0907   71.0374 C   0  0  0  0  0  0  0  0  0  0  0  0
   -8.5330   18.4792   67.4604 C   0  0  0  0  0  0  0  0  0  0  0  0
   -9.5433   18.2987   69.9938 O   0  0  0  0  0  0  0  0  0  0  0  0
   -9.1481   16.2876   65.9124 O   0  0  0  0  0  0  0  0  0  0  0  0
  -10.7304   14.0247   66.8209 C   0  0  0  0  0  0  0  0  0  0  0  0
  -11.1003   13.0895   66.2465 N   0  0  0  0  0  0  0  0  0  0  0  0
   -7.0275   18.2876   67.7219 C   0  0  0  0  0  0  0  0  0  0  0  0
  -10.0126   16.3511   72.1395 C   0  0  0  0  0  0  0  0  0  0  0  0
  -10.4883   16.2212   73.4591 C   0  0  0  0  0  0  0  0  0  0  0  0
  -11.8103   15.8022   73.6966 C   0  0  0  0  0  0  0  0  0  0  0  0
  -12.6594   15.5153   72.6113 C   0  0  0  0  0  0  0  0  0  0  0  0
  -12.1896   15.6561   71.2886 C   0  0  0  0  0  0  0  0  0  0  0  0
  -12.3486   15.5799   75.3255 Cl  0  0  0  0  0  0  0  0  0  0  0  0
   -6.5344   17.3734   68.3696 C   0  0  0  0  0  0  0  0  0  0  0  0
   -5.1310   17.1884   68.5570 C   0  0  0  0  0  0  0  0  0  0  0  0
   -6.3132   19.4044   67.2937 C   0  0  0  0  0  0  0  0  0  0  0  0
   -4.9038   19.2886   67.4758 C   0  0  0  0  0  0  0  0  0  0  0  0
   -4.3512   18.1958   68.1015 C   0  0  0  0  0  0  0  0  0  0  0  0
   -4.1431   20.3749   67.0803 O   0  0  0  0  0  0  0  0  0  0  0  0
   -3.7322   20.5675   65.9931 C   0  0  0  0  0  0  0  0  0  0  0  0
   -2.6741   20.2879   65.5146 C   0  0  0  0  0  0  0  0  0  0  0  0
   -4.6498   21.4393   65.1119 C   0  0  0  0  0  0  0  0  0  0  0  0
  1  2  2  0
  1  6  1  0
  1 11  1  0
  2  3  1  0
  3  4  1  0
  3  7  1  0
  4  9  2  0
  4  5  1  0
  5  6  1  0
  5  8  1  0
  6 10  2  0
  8 13  1  0
 11 12  3  0
 16 19  1  0
 23 25  1  0
 25 26  1  0
 26 27  1  0
 26 28  1  0
 13 20  2  0
 20 21  1  0
 21 24  2  0
 24 23  1  0
 23 22  2  0
 22 13  1  0
  7 18  2  0
 18 17  1  0
 17 16  2  0
 16 15  1  0
 15 14  2  0
 14  7  1  0
M  END

$$$$
No_452-gen_results_new/Mpro_initial_molecule_p3/2024-06-19-20-31-25/
     RDKit          3D

 28 30  0  0  0  0  0  0  0  0999 V2000
  -10.3383   15.1532   67.5971 C   0  0  0  0  0  0  0  0  0  0  0  0
  -10.7220   15.1619   68.8301 N   0  0  0  0  0  0  0  0  0  0  0  0
  -10.4044   16.2024   69.6852 N   0  0  0  0  0  0  0  0  0  0  0  0
   -9.7271   17.3221   69.2607 C   0  0  0  0  0  0  0  0  0  0  0  0
   -9.3095   17.3212   67.9557 N   0  0  0  0  0  0  0  0  0  0  0  0
   -9.5450   16.2958   67.0814 C   0  0  0  0  0  0  0  0  0  0  0  0
  -10.8644   16.0907   71.0374 C   0  0  0  0  0  0  0  0  0  0  0  0
   -8.5330   18.4792   67.4604 C   0  0  0  0  0  0  0  0  0  0  0  0
   -9.5433   18.2987   69.9938 O   0  0  0  0  0  0  0  0  0  0  0  0
   -9.1481   16.2876   65.9124 O   0  0  0  0  0  0  0  0  0  0  0  0
  -10.7304   14.0247   66.8209 C   0  0  0  0  0  0  0  0  0  0  0  0
  -11.1003   13.0895   66.2465 N   0  0  0  0  0  0  0  0  0  0  0  0
   -7.0275   18.2876   67.7219 C   0  0  0  0  0  0  0  0  0  0  0  0
  -10.0126   16.3511   72.1395 C   0  0  0  0  0  0  0  0  0  0  0  0
  -10.4883   16.2212   73.4591 C   0  0  0  0  0  0  0  0  0  0  0  0
  -11.8103   15.8022   73.6966 C   0  0  0  0  0  0  0  0  0  0  0  0
  -12.6594   15.5153   72.6113 C   0  0  0  0  0  0  0  0  0  0  0  0
  -12.1896   15.6561   71.2886 C   0  0  0  0  0  0  0  0  0  0  0  0
  -12.2768   15.6000   75.1088 C   0  0  0  0  0  0  0  0  0  0  0  0
   -6.5341   17.3729   68.3685 C   0  0  0  0  0  0  0  0  0  0  0  0
   -5.1249   17.1827   68.5818 C   0  0  0  0  0  0  0  0  0  0  0  0
   -4.2977   17.9486   67.7745 C   0  0  0  0  0  0  0  0  0  0  0  0
   -4.8006   18.9009   66.9638 C   0  0  0  0  0  0  0  0  0  0  0  0
   -6.2037   19.0663   66.8226 C   0  0  0  0  0  0  0  0  0  0  0  0
  -12.3528   14.5928   75.5997 O   0  0  0  0  0  0  0  0  0  0  0  0
  -12.2292   16.6685   75.8378 O   0  0  0  0  0  0  0  0  0  0  0  0
  -13.9753   15.0050   72.8293 O   0  0  0  0  0  0  0  0  0  0  0  0
   -6.7611   19.9735   65.9832 F   0  0  0  0  0  0  0  0  0  0  0  0
  1  2  2  0
  1  6  1  0
  1 11  1  0
  2  3  1  0
  3  4  1  0
  3  7  1  0
  4  9  2  0
  4  5  1  0
  5  6  1  0
  5  8  1  0
  6 10  2  0
  8 13  1  0
 11 12  3  0
 16 19  1  0
 19 25  2  0
 19 26  1  0
 17 27  1  0
 24 28  1  0
 13 20  2  0
 20 21  1  0
 21 22  2  0
 22 23  1  0
 23 24  2  0
 24 13  1  0
  7 18  2  0
 18 17  1  0
 17 16  2  0
 16 15  1  0
 15 14  2  0
 14  7  1  0
M  END

$$$$
No_453-gen_results_new/Mpro_initial_molecule_p3/2024-06-19-20-31-25/
     RDKit          3D

 28 30  0  0  0  0  0  0  0  0999 V2000
  -10.3383   15.1532   67.5971 C   0  0  0  0  0  0  0  0  0  0  0  0
  -10.7220   15.1619   68.8301 N   0  0  0  0  0  0  0  0  0  0  0  0
  -10.4044   16.2024   69.6852 N   0  0  0  0  0  0  0  0  0  0  0  0
   -9.7271   17.3221   69.2607 C   0  0  0  0  0  0  0  0  0  0  0  0
   -9.3095   17.3212   67.9557 N   0  0  0  0  0  0  0  0  0  0  0  0
   -9.5450   16.2958   67.0814 C   0  0  0  0  0  0  0  0  0  0  0  0
  -10.8644   16.0907   71.0374 C   0  0  0  0  0  0  0  0  0  0  0  0
   -8.5330   18.4792   67.4604 C   0  0  0  0  0  0  0  0  0  0  0  0
   -9.5433   18.2987   69.9938 O   0  0  0  0  0  0  0  0  0  0  0  0
   -9.1481   16.2876   65.9124 O   0  0  0  0  0  0  0  0  0  0  0  0
  -10.7304   14.0247   66.8209 C   0  0  0  0  0  0  0  0  0  0  0  0
  -11.1003   13.0895   66.2465 N   0  0  0  0  0  0  0  0  0  0  0  0
   -7.0275   18.2876   67.7219 C   0  0  0  0  0  0  0  0  0  0  0  0
  -10.0126   16.3511   72.1395 C   0  0  0  0  0  0  0  0  0  0  0  0
  -10.4883   16.2212   73.4591 C   0  0  0  0  0  0  0  0  0  0  0  0
  -11.8103   15.8022   73.6966 C   0  0  0  0  0  0  0  0  0  0  0  0
  -12.6594   15.5153   72.6113 C   0  0  0  0  0  0  0  0  0  0  0  0
  -12.1896   15.6561   71.2886 C   0  0  0  0  0  0  0  0  0  0  0  0
  -12.2484   15.6088   75.0145 O   0  0  0  0  0  0  0  0  0  0  0  0
   -6.3333   19.2808   66.8948 N   0  0  0  0  0  0  0  0  0  0  0  0
   -4.9892   19.0974   66.8659 C   0  0  0  0  0  0  0  0  0  0  0  0
   -4.2348   20.0294   66.0209 C   0  0  0  0  0  0  0  0  0  0  0  0
   -4.8450   21.1603   65.6183 C   0  0  0  0  0  0  0  0  0  0  0  0
   -6.1847   21.4821   66.0257 C   0  0  0  0  0  0  0  0  0  0  0  0
   -6.8844   20.4991   66.6675 C   0  0  0  0  0  0  0  0  0  0  0  0
   -3.8906   22.1659   64.9863 C   0  0  0  0  0  0  0  0  0  0  0  0
   -4.0295   22.3348   63.8048 O   0  0  0  0  0  0  0  0  0  0  0  0
   -3.4041   23.1139   65.7143 O   0  0  0  0  0  0  0  0  0  0  0  0
  1  2  2  0
  1  6  1  0
  1 11  1  0
  2  3  1  0
  3  4  1  0
  3  7  1  0
  4  9  2  0
  4  5  1  0
  5  6  1  0
  5  8  1  0
  6 10  2  0
  8 13  1  0
 11 12  3  0
 16 19  1  0
 13 20  1  0
 20 21  1  0
 22 23  1  0
 20 25  1  0
 24 25  1  0
 23 26  1  0
 26 27  2  0
 26 28  1  0
 21 22  1  0
 23 24  1  0
  7 18  2  0
 18 17  1  0
 17 16  2  0
 16 15  1  0
 15 14  2  0
 14  7  1  0
M  END

$$$$
No_454-gen_results_new/Mpro_initial_molecule_p3/2024-06-19-20-31-25/
     RDKit          3D

 28 30  0  0  0  0  0  0  0  0999 V2000
  -10.3383   15.1532   67.5971 C   0  0  0  0  0  0  0  0  0  0  0  0
  -10.7220   15.1619   68.8301 N   0  0  0  0  0  0  0  0  0  0  0  0
  -10.4044   16.2024   69.6852 N   0  0  0  0  0  0  0  0  0  0  0  0
   -9.7271   17.3221   69.2607 C   0  0  0  0  0  0  0  0  0  0  0  0
   -9.3095   17.3212   67.9557 N   0  0  0  0  0  0  0  0  0  0  0  0
   -9.5450   16.2958   67.0814 C   0  0  0  0  0  0  0  0  0  0  0  0
  -10.8644   16.0907   71.0374 C   0  0  0  0  0  0  0  0  0  0  0  0
   -8.5330   18.4792   67.4604 C   0  0  0  0  0  0  0  0  0  0  0  0
   -9.5433   18.2987   69.9938 O   0  0  0  0  0  0  0  0  0  0  0  0
   -9.1481   16.2876   65.9124 O   0  0  0  0  0  0  0  0  0  0  0  0
  -10.7304   14.0247   66.8209 C   0  0  0  0  0  0  0  0  0  0  0  0
  -11.1003   13.0895   66.2465 N   0  0  0  0  0  0  0  0  0  0  0  0
   -7.0275   18.2876   67.7219 C   0  0  0  0  0  0  0  0  0  0  0  0
  -10.0126   16.3511   72.1395 C   0  0  0  0  0  0  0  0  0  0  0  0
  -10.4883   16.2212   73.4591 C   0  0  0  0  0  0  0  0  0  0  0  0
  -11.8103   15.8022   73.6966 C   0  0  0  0  0  0  0  0  0  0  0  0
  -12.6594   15.5153   72.6113 C   0  0  0  0  0  0  0  0  0  0  0  0
  -12.1896   15.6561   71.2886 C   0  0  0  0  0  0  0  0  0  0  0  0
  -12.2768   15.6000   75.1088 C   0  0  0  0  0  0  0  0  0  0  0  0
   -6.5341   17.3729   68.3685 C   0  0  0  0  0  0  0  0  0  0  0  0
   -5.0715   17.5390   68.5416 C   0  0  0  0  0  0  0  0  0  0  0  0
   -4.5315   18.4047   67.7425 C   0  0  0  0  0  0  0  0  0  0  0  0
   -5.0204   19.2713   66.9546 C   0  0  0  0  0  0  0  0  0  0  0  0
   -6.4025   19.1942   66.8175 C   0  0  0  0  0  0  0  0  0  0  0  0
  -12.3526   14.5927   75.5997 O   0  0  0  0  0  0  0  0  0  0  0  0
  -12.4211   16.7486   75.8004 N   0  0  0  0  0  0  0  0  0  0  0  0
   -4.2325   20.2188   66.1501 C   0  0  0  0  0  0  0  0  0  0  0  0
   -4.1060   20.0302   64.9160 N   0  0  0  0  0  0  0  0  0  0  0  0
  1  2  2  0
  1  6  1  0
  1 11  1  0
  2  3  1  0
  3  4  1  0
  3  7  1  0
  4  9  2  0
  4  5  1  0
  5  6  1  0
  5  8  1  0
  6 10  2  0
  8 13  1  0
 11 12  3  0
 16 19  1  0
 19 25  2  0
 19 26  1  0
 23 27  1  0
 27 28  1  0
 13 20  2  0
 20 21  1  0
 21 22  2  0
 22 23  1  0
 23 24  2  0
 24 13  1  0
  7 18  2  0
 18 17  1  0
 17 16  2  0
 16 15  1  0
 15 14  2  0
 14  7  1  0
M  END

$$$$
No_455-gen_results_new/Mpro_initial_molecule_p3/2024-06-19-20-31-25/
     RDKit          3D

 28 30  0  0  0  0  0  0  0  0999 V2000
  -10.3383   15.1532   67.5971 C   0  0  0  0  0  0  0  0  0  0  0  0
  -10.7220   15.1619   68.8301 N   0  0  0  0  0  0  0  0  0  0  0  0
  -10.4044   16.2024   69.6852 N   0  0  0  0  0  0  0  0  0  0  0  0
   -9.7271   17.3221   69.2607 C   0  0  0  0  0  0  0  0  0  0  0  0
   -9.3095   17.3212   67.9557 N   0  0  0  0  0  0  0  0  0  0  0  0
   -9.5450   16.2958   67.0814 C   0  0  0  0  0  0  0  0  0  0  0  0
  -10.8644   16.0907   71.0374 C   0  0  0  0  0  0  0  0  0  0  0  0
   -8.5330   18.4792   67.4604 C   0  0  0  0  0  0  0  0  0  0  0  0
   -9.5433   18.2987   69.9938 O   0  0  0  0  0  0  0  0  0  0  0  0
   -9.1481   16.2876   65.9124 O   0  0  0  0  0  0  0  0  0  0  0  0
  -10.7304   14.0247   66.8209 C   0  0  0  0  0  0  0  0  0  0  0  0
  -11.1003   13.0895   66.2465 N   0  0  0  0  0  0  0  0  0  0  0  0
   -7.0275   18.2876   67.7219 C   0  0  0  0  0  0  0  0  0  0  0  0
  -10.0126   16.3511   72.1395 C   0  0  0  0  0  0  0  0  0  0  0  0
  -10.4883   16.2212   73.4591 C   0  0  0  0  0  0  0  0  0  0  0  0
  -11.8103   15.8022   73.6966 C   0  0  0  0  0  0  0  0  0  0  0  0
  -12.6594   15.5153   72.6113 C   0  0  0  0  0  0  0  0  0  0  0  0
  -12.1896   15.6561   71.2886 C   0  0  0  0  0  0  0  0  0  0  0  0
  -12.3486   15.5799   75.3255 Cl  0  0  0  0  0  0  0  0  0  0  0  0
   -6.4523   19.3079   67.8835 C   0  0  0  0  0  0  0  0  0  0  0  0
   -4.9674   19.3665   67.8795 C   0  0  0  0  0  0  0  0  0  0  0  0
   -4.2474   20.6429   68.0405 C   0  0  0  0  0  0  0  0  0  0  0  0
   -3.5682   21.1023   67.0373 C   0  0  0  0  0  0  0  0  0  0  0  0
   -2.7125   21.9310   66.7991 C   0  0  0  0  0  0  0  0  0  0  0  0
   -1.6137   22.0459   67.7444 C   0  0  0  0  0  0  0  0  0  0  0  0
   -1.9359   21.3738   68.9774 C   0  0  0  0  0  0  0  0  0  0  0  0
   -3.0723   20.4024   69.0901 C   0  0  0  0  0  0  0  0  0  0  0  0
   -4.7004   21.2610   65.6488 C   0  0  0  0  0  0  0  0  0  0  0  0
  1  2  2  0
  1  6  1  0
  1 11  1  0
  2  3  1  0
  3  4  1  0
  3  7  1  0
  4  9  2  0
  4  5  1  0
  5  6  1  0
  5  8  1  0
  6 10  2  0
  8 13  1  0
 11 12  3  0
 16 19  1  0
 13 20  1  0
 20 21  1  0
 21 22  1  0
 23 28  1  0
 22 23  2  0
 23 24  1  0
 24 25  2  0
 25 26  1  0
 26 27  2  0
 27 22  1  0
  7 18  2  0
 18 17  1  0
 17 16  2  0
 16 15  1  0
 15 14  2  0
 14  7  1  0
M  END

$$$$
No_456-gen_results_new/Mpro_initial_molecule_p3/2024-06-19-20-31-25/
     RDKit          3D

 28 30  0  0  0  0  0  0  0  0999 V2000
  -10.3383   15.1532   67.5971 C   0  0  0  0  0  0  0  0  0  0  0  0
  -10.7220   15.1619   68.8301 N   0  0  0  0  0  0  0  0  0  0  0  0
  -10.4044   16.2024   69.6852 N   0  0  0  0  0  0  0  0  0  0  0  0
   -9.7271   17.3221   69.2607 C   0  0  0  0  0  0  0  0  0  0  0  0
   -9.3095   17.3212   67.9557 N   0  0  0  0  0  0  0  0  0  0  0  0
   -9.5450   16.2958   67.0814 C   0  0  0  0  0  0  0  0  0  0  0  0
  -10.8644   16.0907   71.0374 C   0  0  0  0  0  0  0  0  0  0  0  0
   -8.5330   18.4792   67.4604 C   0  0  0  0  0  0  0  0  0  0  0  0
   -9.5433   18.2987   69.9938 O   0  0  0  0  0  0  0  0  0  0  0  0
   -9.1481   16.2876   65.9124 O   0  0  0  0  0  0  0  0  0  0  0  0
  -10.7304   14.0247   66.8209 C   0  0  0  0  0  0  0  0  0  0  0  0
  -11.1003   13.0895   66.2465 N   0  0  0  0  0  0  0  0  0  0  0  0
   -7.0275   18.2876   67.7219 C   0  0  0  0  0  0  0  0  0  0  0  0
  -10.0126   16.3511   72.1395 C   0  0  0  0  0  0  0  0  0  0  0  0
  -10.4883   16.2212   73.4591 C   0  0  0  0  0  0  0  0  0  0  0  0
  -11.8103   15.8022   73.6966 C   0  0  0  0  0  0  0  0  0  0  0  0
  -12.6594   15.5153   72.6113 C   0  0  0  0  0  0  0  0  0  0  0  0
  -12.1896   15.6561   71.2886 C   0  0  0  0  0  0  0  0  0  0  0  0
  -12.3486   15.5799   75.3255 Cl  0  0  0  0  0  0  0  0  0  0  0  0
   -6.5344   17.3734   68.3696 C   0  0  0  0  0  0  0  0  0  0  0  0
   -5.1249   17.1828   68.5820 C   0  0  0  0  0  0  0  0  0  0  0  0
   -4.2977   17.9476   67.7740 C   0  0  0  0  0  0  0  0  0  0  0  0
   -2.9932   17.8717   67.7418 C   0  0  0  0  0  0  0  0  0  0  0  0
   -6.1800   19.0663   66.9477 C   0  0  0  0  0  0  0  0  0  0  0  0
   -4.8786   18.9283   66.9770 C   0  0  0  0  0  0  0  0  0  0  0  0
   -2.3263   18.5638   68.9636 C   0  0  0  0  0  0  0  0  0  0  0  0
   -2.3991   18.1685   70.1818 C   0  0  0  0  0  0  0  0  0  0  0  0
   -3.1805   18.8863   71.1273 C   0  0  0  0  0  0  0  0  0  0  0  0
  1  2  2  0
  1  6  1  0
  1 11  1  0
  2  3  1  0
  3  4  1  0
  3  7  1  0
  4  9  2  0
  4  5  1  0
  5  6  1  0
  5  8  1  0
  6 10  2  0
  8 13  1  0
 11 12  3  0
 16 19  1  0
 22 23  1  0
 23 26  1  0
 26 27  1  0
 27 28  2  0
 13 20  2  0
 20 21  1  0
 21 22  2  0
 22 25  1  0
 25 24  2  0
 24 13  1  0
  7 18  2  0
 18 17  1  0
 17 16  2  0
 16 15  1  0
 15 14  2  0
 14  7  1  0
M  END

$$$$
No_457-gen_results_new/Mpro_initial_molecule_p3/2024-06-19-20-31-25/
     RDKit          3D

 28 30  0  0  0  0  0  0  0  0999 V2000
  -10.3383   15.1532   67.5971 C   0  0  0  0  0  0  0  0  0  0  0  0
  -10.7220   15.1619   68.8301 N   0  0  0  0  0  0  0  0  0  0  0  0
  -10.4044   16.2024   69.6852 N   0  0  0  0  0  0  0  0  0  0  0  0
   -9.7271   17.3221   69.2607 C   0  0  0  0  0  0  0  0  0  0  0  0
   -9.3095   17.3212   67.9557 N   0  0  0  0  0  0  0  0  0  0  0  0
   -9.5450   16.2958   67.0814 C   0  0  0  0  0  0  0  0  0  0  0  0
  -10.8644   16.0907   71.0374 C   0  0  0  0  0  0  0  0  0  0  0  0
   -8.5330   18.4792   67.4604 C   0  0  0  0  0  0  0  0  0  0  0  0
   -9.5433   18.2987   69.9938 O   0  0  0  0  0  0  0  0  0  0  0  0
   -9.1481   16.2876   65.9124 O   0  0  0  0  0  0  0  0  0  0  0  0
  -10.7304   14.0247   66.8209 C   0  0  0  0  0  0  0  0  0  0  0  0
  -11.1003   13.0895   66.2465 N   0  0  0  0  0  0  0  0  0  0  0  0
   -7.0275   18.2876   67.7219 C   0  0  0  0  0  0  0  0  0  0  0  0
  -10.0126   16.3511   72.1395 C   0  0  0  0  0  0  0  0  0  0  0  0
  -10.4883   16.2212   73.4591 C   0  0  0  0  0  0  0  0  0  0  0  0
  -11.8103   15.8022   73.6966 C   0  0  0  0  0  0  0  0  0  0  0  0
  -12.6594   15.5153   72.6113 C   0  0  0  0  0  0  0  0  0  0  0  0
  -12.1896   15.6561   71.2886 C   0  0  0  0  0  0  0  0  0  0  0  0
  -12.2768   15.6000   75.1088 C   0  0  0  0  0  0  0  0  0  0  0  0
   -6.5556   17.2014   67.9036 O   0  0  0  0  0  0  0  0  0  0  0  0
   -6.3088   19.3657   67.4560 N   0  0  0  0  0  0  0  0  0  0  0  0
  -11.9790   16.5273   75.8868 N   0  0  0  0  0  0  0  0  0  0  0  0
   -4.9198   19.4054   67.5574 C   0  0  0  0  0  0  0  0  0  0  0  0
   -4.3172   19.6196   66.3506 C   0  0  0  0  0  0  0  0  0  0  0  0
   -4.7583   20.2273   65.3996 N   0  0  0  0  0  0  0  0  0  0  0  0
   -5.7459   21.1610   65.4542 C   0  0  0  0  0  0  0  0  0  0  0  0
   -6.8900   20.3452   66.3960 C   0  0  0  0  0  0  0  0  0  0  0  0
   -4.1732   20.3075   64.0321 C   0  0  0  0  0  0  0  0  0  0  0  0
  1  2  2  0
  1  6  1  0
  1 11  1  0
  2  3  1  0
  3  4  1  0
  3  7  1  0
  4  9  2  0
  4  5  1  0
  5  6  1  0
  5  8  1  0
  6 10  2  0
  8 13  1  0
 11 12  3  0
 16 19  1  0
 13 20  2  0
 13 21  1  0
 19 22  1  0
 21 23  1  0
 23 24  1  0
 24 25  1  0
 25 26  1  0
 21 27  1  0
 26 27  1  0
 25 28  1  0
  7 18  2  0
 18 17  1  0
 17 16  2  0
 16 15  1  0
 15 14  2  0
 14  7  1  0
M  END

$$$$
No_458-gen_results_new/Mpro_initial_molecule_p3/2024-06-19-20-31-25/
     RDKit          3D

 25 27  0  0  0  0  0  0  0  0999 V2000
  -10.3383   15.1532   67.5971 C   0  0  0  0  0  0  0  0  0  0  0  0
  -10.7220   15.1619   68.8301 N   0  0  0  0  0  0  0  0  0  0  0  0
  -10.4044   16.2024   69.6852 N   0  0  0  0  0  0  0  0  0  0  0  0
   -9.7271   17.3221   69.2607 C   0  0  0  0  0  0  0  0  0  0  0  0
   -9.3095   17.3212   67.9557 N   0  0  0  0  0  0  0  0  0  0  0  0
   -9.5450   16.2958   67.0814 C   0  0  0  0  0  0  0  0  0  0  0  0
  -10.8644   16.0907   71.0374 C   0  0  0  0  0  0  0  0  0  0  0  0
   -8.5330   18.4792   67.4604 C   0  0  0  0  0  0  0  0  0  0  0  0
   -9.5433   18.2987   69.9938 O   0  0  0  0  0  0  0  0  0  0  0  0
   -9.1481   16.2876   65.9124 O   0  0  0  0  0  0  0  0  0  0  0  0
  -10.7304   14.0247   66.8209 C   0  0  0  0  0  0  0  0  0  0  0  0
  -11.1003   13.0895   66.2465 N   0  0  0  0  0  0  0  0  0  0  0  0
   -7.0275   18.2876   67.7219 C   0  0  0  0  0  0  0  0  0  0  0  0
  -10.0126   16.3511   72.1395 C   0  0  0  0  0  0  0  0  0  0  0  0
  -10.4883   16.2212   73.4591 C   0  0  0  0  0  0  0  0  0  0  0  0
  -11.8103   15.8022   73.6966 C   0  0  0  0  0  0  0  0  0  0  0  0
  -12.6594   15.5153   72.6113 C   0  0  0  0  0  0  0  0  0  0  0  0
  -12.1896   15.6561   71.2886 C   0  0  0  0  0  0  0  0  0  0  0  0
  -12.3486   15.5799   75.3255 Cl  0  0  0  0  0  0  0  0  0  0  0  0
   -6.3058   19.3592   66.9157 C   0  0  0  0  0  0  0  0  0  0  0  0
   -4.9894   19.4433   66.9687 C   0  0  0  0  0  0  0  0  0  0  0  0
   -4.2885   20.4306   66.2890 C   0  0  0  0  0  0  0  0  0  0  0  0
   -2.6755   20.4124   66.3518 S   0  0  0  0  0  0  0  0  0  0  0  0
   -2.7099   19.0267   67.4865 C   0  0  0  0  0  0  0  0  0  0  0  0
   -4.0603   18.6271   67.6391 C   0  0  0  0  0  0  0  0  0  0  0  0
  1  2  2  0
  1  6  1  0
  1 11  1  0
  2  3  1  0
  3  4  1  0
  3  7  1  0
  4  9  2  0
  4  5  1  0
  5  6  1  0
  5  8  1  0
  6 10  2  0
  8 13  1  0
 11 12  3  0
 16 19  1  0
 13 20  1  0
 20 21  1  0
 21 22  2  0
 22 23  1  0
 23 24  1  0
 21 25  1  0
 24 25  2  0
  7 18  2  0
 18 17  1  0
 17 16  2  0
 16 15  1  0
 15 14  2  0
 14  7  1  0
M  END

$$$$
No_459-gen_results_new/Mpro_initial_molecule_p3/2024-06-19-20-31-25/
     RDKit          3D

 28 30  0  0  0  0  0  0  0  0999 V2000
  -10.3383   15.1532   67.5971 C   0  0  0  0  0  0  0  0  0  0  0  0
  -10.7220   15.1619   68.8301 N   0  0  0  0  0  0  0  0  0  0  0  0
  -10.4044   16.2024   69.6852 N   0  0  0  0  0  0  0  0  0  0  0  0
   -9.7271   17.3221   69.2607 C   0  0  0  0  0  0  0  0  0  0  0  0
   -9.3095   17.3212   67.9557 N   0  0  0  0  0  0  0  0  0  0  0  0
   -9.5450   16.2958   67.0814 C   0  0  0  0  0  0  0  0  0  0  0  0
  -10.8644   16.0907   71.0374 C   0  0  0  0  0  0  0  0  0  0  0  0
   -8.5330   18.4792   67.4604 C   0  0  0  0  0  0  0  0  0  0  0  0
   -9.5433   18.2987   69.9938 O   0  0  0  0  0  0  0  0  0  0  0  0
   -9.1481   16.2876   65.9124 O   0  0  0  0  0  0  0  0  0  0  0  0
  -10.7304   14.0247   66.8209 C   0  0  0  0  0  0  0  0  0  0  0  0
  -11.1003   13.0895   66.2465 N   0  0  0  0  0  0  0  0  0  0  0  0
   -7.0275   18.2876   67.7219 C   0  0  0  0  0  0  0  0  0  0  0  0
  -10.0126   16.3511   72.1395 C   0  0  0  0  0  0  0  0  0  0  0  0
  -10.4883   16.2212   73.4591 C   0  0  0  0  0  0  0  0  0  0  0  0
  -11.8103   15.8022   73.6966 C   0  0  0  0  0  0  0  0  0  0  0  0
  -12.6594   15.5153   72.6113 C   0  0  0  0  0  0  0  0  0  0  0  0
  -12.1896   15.6561   71.2886 C   0  0  0  0  0  0  0  0  0  0  0  0
  -12.2768   15.6000   75.1088 C   0  0  0  0  0  0  0  0  0  0  0  0
   -6.3332   19.2807   66.8947 N   0  0  0  0  0  0  0  0  0  0  0  0
   -4.9893   19.0970   66.8658 C   0  0  0  0  0  0  0  0  0  0  0  0
  -12.3534   14.5919   75.5992 O   0  0  0  0  0  0  0  0  0  0  0  0
  -12.4570   16.7006   75.7589 O   0  0  0  0  0  0  0  0  0  0  0  0
   -4.2334   20.0308   66.0236 C   0  0  0  0  0  0  0  0  0  0  0  0
   -4.8902   21.1689   65.6216 C   0  0  0  0  0  0  0  0  0  0  0  0
   -6.1065   21.4387   66.0858 C   0  0  0  0  0  0  0  0  0  0  0  0
   -6.8767   20.5088   66.6975 C   0  0  0  0  0  0  0  0  0  0  0  0
   -4.0006   22.1311   65.0677 O   0  0  0  0  0  0  0  0  0  0  0  0
  1  2  2  0
  1  6  1  0
  1 11  1  0
  2  3  1  0
  3  4  1  0
  3  7  1  0
  4  9  2  0
  4  5  1  0
  5  6  1  0
  5  8  1  0
  6 10  2  0
  8 13  1  0
 11 12  3  0
 16 19  1  0
 13 20  1  0
 20 21  1  0
 19 22  2  0
 19 23  1  0
 21 24  1  0
 25 26  1  0
 20 27  1  0
 25 28  1  0
 24 25  1  0
 26 27  1  0
  7 18  2  0
 18 17  1  0
 17 16  2  0
 16 15  1  0
 15 14  2  0
 14  7  1  0
M  END

$$$$
No_460-gen_results_new/Mpro_initial_molecule_p3/2024-06-19-20-31-25/
     RDKit          3D

 28 30  0  0  0  0  0  0  0  0999 V2000
  -10.3383   15.1532   67.5971 C   0  0  0  0  0  0  0  0  0  0  0  0
  -10.7220   15.1619   68.8301 N   0  0  0  0  0  0  0  0  0  0  0  0
  -10.4044   16.2024   69.6852 N   0  0  0  0  0  0  0  0  0  0  0  0
   -9.7271   17.3221   69.2607 C   0  0  0  0  0  0  0  0  0  0  0  0
   -9.3095   17.3212   67.9557 N   0  0  0  0  0  0  0  0  0  0  0  0
   -9.5450   16.2958   67.0814 C   0  0  0  0  0  0  0  0  0  0  0  0
  -10.8644   16.0907   71.0374 C   0  0  0  0  0  0  0  0  0  0  0  0
   -8.5330   18.4792   67.4604 C   0  0  0  0  0  0  0  0  0  0  0  0
   -9.5433   18.2987   69.9938 O   0  0  0  0  0  0  0  0  0  0  0  0
   -9.1481   16.2876   65.9124 O   0  0  0  0  0  0  0  0  0  0  0  0
  -10.7304   14.0247   66.8209 C   0  0  0  0  0  0  0  0  0  0  0  0
  -11.1003   13.0895   66.2465 N   0  0  0  0  0  0  0  0  0  0  0  0
   -7.0275   18.2876   67.7219 C   0  0  0  0  0  0  0  0  0  0  0  0
  -10.0126   16.3511   72.1395 C   0  0  0  0  0  0  0  0  0  0  0  0
  -10.4883   16.2212   73.4591 C   0  0  0  0  0  0  0  0  0  0  0  0
  -11.8103   15.8022   73.6966 C   0  0  0  0  0  0  0  0  0  0  0  0
  -12.6594   15.5153   72.6113 C   0  0  0  0  0  0  0  0  0  0  0  0
  -12.1896   15.6561   71.2886 C   0  0  0  0  0  0  0  0  0  0  0  0
  -12.2497   15.6113   74.9888 F   0  0  0  0  0  0  0  0  0  0  0  0
   -6.3059   19.3592   66.9155 C   0  0  0  0  0  0  0  0  0  0  0  0
   -4.9828   19.4368   66.9645 C   0  0  0  0  0  0  0  0  0  0  0  0
   -4.2692   18.3351   67.6523 C   0  0  0  0  0  0  0  0  0  0  0  0
   -5.0417   17.2528   68.3039 C   0  0  0  0  0  0  0  0  0  0  0  0
   -6.4234   17.2319   68.1844 C   0  0  0  0  0  0  0  0  0  0  0  0
   -4.2745   20.3453   66.4156 O   0  0  0  0  0  0  0  0  0  0  0  0
   -4.0882   20.5592   65.2605 C   0  0  0  0  0  0  0  0  0  0  0  0
   -3.3777   21.7535   64.9054 C   0  0  0  0  0  0  0  0  0  0  0  0
   -3.4321   22.1403   63.5003 C   0  0  0  0  0  0  0  0  0  0  0  0
  1  2  2  0
  1  6  1  0
  1 11  1  0
  2  3  1  0
  3  4  1  0
  3  7  1  0
  4  9  2  0
  4  5  1  0
  5  6  1  0
  5  8  1  0
  6 10  2  0
  8 13  1  0
 11 12  3  0
 16 19  1  0
 21 25  1  0
 25 26  1  0
 26 27  1  0
 27 28  2  0
 13 20  2  0
 20 21  1  0
 21 22  2  0
 22 23  1  0
 23 24  2  0
 24 13  1  0
  7 18  2  0
 18 17  1  0
 17 16  2  0
 16 15  1  0
 15 14  2  0
 14  7  1  0
M  END

$$$$
No_461-gen_results_new/Mpro_initial_molecule_p3/2024-06-19-20-31-25/
     RDKit          3D

 28 30  0  0  0  0  0  0  0  0999 V2000
  -10.3383   15.1532   67.5971 C   0  0  0  0  0  0  0  0  0  0  0  0
  -10.7220   15.1619   68.8301 N   0  0  0  0  0  0  0  0  0  0  0  0
  -10.4044   16.2024   69.6852 N   0  0  0  0  0  0  0  0  0  0  0  0
   -9.7271   17.3221   69.2607 C   0  0  0  0  0  0  0  0  0  0  0  0
   -9.3095   17.3212   67.9557 N   0  0  0  0  0  0  0  0  0  0  0  0
   -9.5450   16.2958   67.0814 C   0  0  0  0  0  0  0  0  0  0  0  0
  -10.8644   16.0907   71.0374 C   0  0  0  0  0  0  0  0  0  0  0  0
   -8.5330   18.4792   67.4604 C   0  0  0  0  0  0  0  0  0  0  0  0
   -9.5433   18.2987   69.9938 O   0  0  0  0  0  0  0  0  0  0  0  0
   -9.1481   16.2876   65.9124 O   0  0  0  0  0  0  0  0  0  0  0  0
  -10.7304   14.0247   66.8209 C   0  0  0  0  0  0  0  0  0  0  0  0
  -11.1003   13.0895   66.2465 N   0  0  0  0  0  0  0  0  0  0  0  0
   -7.0275   18.2876   67.7219 C   0  0  0  0  0  0  0  0  0  0  0  0
  -10.0126   16.3511   72.1395 C   0  0  0  0  0  0  0  0  0  0  0  0
  -10.4883   16.2212   73.4591 C   0  0  0  0  0  0  0  0  0  0  0  0
  -11.8103   15.8022   73.6966 C   0  0  0  0  0  0  0  0  0  0  0  0
  -12.6594   15.5153   72.6113 C   0  0  0  0  0  0  0  0  0  0  0  0
  -12.1896   15.6561   71.2886 C   0  0  0  0  0  0  0  0  0  0  0  0
  -12.2768   15.6000   75.1088 C   0  0  0  0  0  0  0  0  0  0  0  0
   -6.4522   19.3092   67.8826 C   0  0  0  0  0  0  0  0  0  0  0  0
  -12.5808   16.5955   75.6954 O   0  0  0  0  0  0  0  0  0  0  0  0
  -11.8948   14.5567   75.6573 O   0  0  0  0  0  0  0  0  0  0  0  0
   -6.0859   19.5172   69.0866 C   0  0  0  0  0  0  0  0  0  0  0  0
   -4.9412   20.3740   69.5022 C   0  0  0  0  0  0  0  0  0  0  0  0
   -4.1346   20.8981   68.4696 C   0  0  0  0  0  0  0  0  0  0  0  0
   -4.2680   20.4720   67.1542 C   0  0  0  0  0  0  0  0  0  0  0  0
   -5.4551   19.7232   66.8334 C   0  0  0  0  0  0  0  0  0  0  0  0
   -5.7202   19.4582   65.5607 F   0  0  0  0  0  0  0  0  0  0  0  0
  1  2  2  0
  1  6  1  0
  1 11  1  0
  2  3  1  0
  3  4  1  0
  3  7  1  0
  4  9  2  0
  4  5  1  0
  5  6  1  0
  5  8  1  0
  6 10  2  0
  8 13  1  0
 11 12  3  0
 16 19  1  0
 13 20  1  0
 19 21  2  0
 19 22  1  0
 27 28  1  0
 20 23  2  0
 23 24  1  0
 24 25  2  0
 25 26  1  0
 26 27  2  0
 27 20  1  0
  7 18  2  0
 18 17  1  0
 17 16  2  0
 16 15  1  0
 15 14  2  0
 14  7  1  0
M  END

$$$$
No_462-gen_results_new/Mpro_initial_molecule_p3/2024-06-19-20-31-25/
     RDKit          3D

 28 30  0  0  0  0  0  0  0  0999 V2000
  -10.3383   15.1532   67.5971 C   0  0  0  0  0  0  0  0  0  0  0  0
  -10.7220   15.1619   68.8301 N   0  0  0  0  0  0  0  0  0  0  0  0
  -10.4044   16.2024   69.6852 N   0  0  0  0  0  0  0  0  0  0  0  0
   -9.7271   17.3221   69.2607 C   0  0  0  0  0  0  0  0  0  0  0  0
   -9.3095   17.3212   67.9557 N   0  0  0  0  0  0  0  0  0  0  0  0
   -9.5450   16.2958   67.0814 C   0  0  0  0  0  0  0  0  0  0  0  0
  -10.8644   16.0907   71.0374 C   0  0  0  0  0  0  0  0  0  0  0  0
   -8.5330   18.4792   67.4604 C   0  0  0  0  0  0  0  0  0  0  0  0
   -9.5433   18.2987   69.9938 O   0  0  0  0  0  0  0  0  0  0  0  0
   -9.1481   16.2876   65.9124 O   0  0  0  0  0  0  0  0  0  0  0  0
  -10.7304   14.0247   66.8209 C   0  0  0  0  0  0  0  0  0  0  0  0
  -11.1003   13.0895   66.2465 N   0  0  0  0  0  0  0  0  0  0  0  0
   -7.0275   18.2876   67.7219 C   0  0  0  0  0  0  0  0  0  0  0  0
  -10.0126   16.3511   72.1395 C   0  0  0  0  0  0  0  0  0  0  0  0
  -10.4883   16.2212   73.4591 C   0  0  0  0  0  0  0  0  0  0  0  0
  -11.8103   15.8022   73.6966 C   0  0  0  0  0  0  0  0  0  0  0  0
  -12.6594   15.5153   72.6113 C   0  0  0  0  0  0  0  0  0  0  0  0
  -12.1896   15.6561   71.2886 C   0  0  0  0  0  0  0  0  0  0  0  0
  -12.2768   15.6000   75.1088 C   0  0  0  0  0  0  0  0  0  0  0  0
   -6.4522   19.3092   67.8826 C   0  0  0  0  0  0  0  0  0  0  0  0
  -12.3537   14.5923   75.5994 O   0  0  0  0  0  0  0  0  0  0  0  0
  -12.8079   16.7351   75.7027 N   0  0  0  0  0  0  0  0  0  0  0  0
   -6.3184   20.3973   67.0193 C   0  0  0  0  0  0  0  0  0  0  0  0
   -7.7139   20.6232   66.4190 C   0  0  0  0  0  0  0  0  0  0  0  0
   -8.7154   19.7649   66.5211 C   0  0  0  0  0  0  0  0  0  0  0  0
   -5.3108   21.3741   66.7899 C   0  0  0  0  0  0  0  0  0  0  0  0
   -4.3994   21.2739   66.0454 N   0  0  0  0  0  0  0  0  0  0  0  0
  -10.1279   19.8191   65.9972 C   0  0  0  0  0  0  0  0  0  0  0  0
  1  2  2  0
  1  6  1  0
  1 11  1  0
  2  3  1  0
  3  4  1  0
  3  7  1  0
  4  9  2  0
  4  5  1  0
  5  6  1  0
  5  8  1  0
  6 10  2  0
 11 12  3  0
 16 19  1  0
 19 21  2  0
 19 22  1  0
 23 26  1  0
 26 27  1  0
 25 28  1  0
  8 13  2  0
 13 20  1  0
 20 23  2  0
 23 24  1  0
 24 25  2  0
 25  8  1  0
  7 18  2  0
 18 17  1  0
 17 16  2  0
 16 15  1  0
 15 14  2  0
 14  7  1  0
M  END

$$$$
No_463-gen_results_new/Mpro_initial_molecule_p3/2024-06-19-20-31-25/
     RDKit          3D

 28 30  0  0  0  0  0  0  0  0999 V2000
  -10.3383   15.1532   67.5971 C   0  0  0  0  0  0  0  0  0  0  0  0
  -10.7220   15.1619   68.8301 N   0  0  0  0  0  0  0  0  0  0  0  0
  -10.4044   16.2024   69.6852 N   0  0  0  0  0  0  0  0  0  0  0  0
   -9.7271   17.3221   69.2607 C   0  0  0  0  0  0  0  0  0  0  0  0
   -9.3095   17.3212   67.9557 N   0  0  0  0  0  0  0  0  0  0  0  0
   -9.5450   16.2958   67.0814 C   0  0  0  0  0  0  0  0  0  0  0  0
  -10.8644   16.0907   71.0374 C   0  0  0  0  0  0  0  0  0  0  0  0
   -8.5330   18.4792   67.4604 C   0  0  0  0  0  0  0  0  0  0  0  0
   -9.5433   18.2987   69.9938 O   0  0  0  0  0  0  0  0  0  0  0  0
   -9.1481   16.2876   65.9124 O   0  0  0  0  0  0  0  0  0  0  0  0
  -10.7304   14.0247   66.8209 C   0  0  0  0  0  0  0  0  0  0  0  0
  -11.1003   13.0895   66.2465 N   0  0  0  0  0  0  0  0  0  0  0  0
   -7.0275   18.2876   67.7219 C   0  0  0  0  0  0  0  0  0  0  0  0
  -10.0126   16.3511   72.1395 C   0  0  0  0  0  0  0  0  0  0  0  0
  -10.4883   16.2212   73.4591 C   0  0  0  0  0  0  0  0  0  0  0  0
  -11.8103   15.8022   73.6966 C   0  0  0  0  0  0  0  0  0  0  0  0
  -12.6594   15.5153   72.6113 C   0  0  0  0  0  0  0  0  0  0  0  0
  -12.1896   15.6561   71.2886 C   0  0  0  0  0  0  0  0  0  0  0  0
  -12.2497   15.6113   74.9888 F   0  0  0  0  0  0  0  0  0  0  0  0
   -6.5558   17.2021   67.9051 O   0  0  0  0  0  0  0  0  0  0  0  0
   -6.3089   19.3657   67.4553 N   0  0  0  0  0  0  0  0  0  0  0  0
   -4.9196   19.4060   67.5523 C   0  0  0  0  0  0  0  0  0  0  0  0
   -4.3164   19.6198   66.3448 C   0  0  0  0  0  0  0  0  0  0  0  0
   -2.8947   19.5879   66.3149 C   0  0  0  0  0  0  0  0  0  0  0  0
   -2.1917   19.6990   65.1959 C   0  0  0  0  0  0  0  0  0  0  0  0
   -2.8439   19.7664   63.9355 C   0  0  0  0  0  0  0  0  0  0  0  0
   -4.2675   19.7255   63.8835 C   0  0  0  0  0  0  0  0  0  0  0  0
   -4.9909   19.5894   65.0847 C   0  0  0  0  0  0  0  0  0  0  0  0
  1  2  2  0
  1  6  1  0
  1 11  1  0
  2  3  1  0
  3  4  1  0
  3  7  1  0
  4  9  2  0
  4  5  1  0
  5  6  1  0
  5  8  1  0
  6 10  2  0
  8 13  1  0
 11 12  3  0
 16 19  1  0
 13 20  2  0
 13 21  1  0
 21 22  1  0
 22 23  1  0
 23 24  2  0
 24 25  1  0
 25 26  2  0
 26 27  1  0
 27 28  2  0
 28 23  1  0
  7 18  2  0
 18 17  1  0
 17 16  2  0
 16 15  1  0
 15 14  2  0
 14  7  1  0
M  END

$$$$
No_464-gen_results_new/Mpro_initial_molecule_p3/2024-06-19-20-31-25/
     RDKit          3D

 27 29  0  0  0  0  0  0  0  0999 V2000
  -10.3383   15.1532   67.5971 C   0  0  0  0  0  0  0  0  0  0  0  0
  -10.7220   15.1619   68.8301 N   0  0  0  0  0  0  0  0  0  0  0  0
  -10.4044   16.2024   69.6852 N   0  0  0  0  0  0  0  0  0  0  0  0
   -9.7271   17.3221   69.2607 C   0  0  0  0  0  0  0  0  0  0  0  0
   -9.3095   17.3212   67.9557 N   0  0  0  0  0  0  0  0  0  0  0  0
   -9.5450   16.2958   67.0814 C   0  0  0  0  0  0  0  0  0  0  0  0
  -10.8644   16.0907   71.0374 C   0  0  0  0  0  0  0  0  0  0  0  0
   -8.5330   18.4792   67.4604 C   0  0  0  0  0  0  0  0  0  0  0  0
   -9.5433   18.2987   69.9938 O   0  0  0  0  0  0  0  0  0  0  0  0
   -9.1481   16.2876   65.9124 O   0  0  0  0  0  0  0  0  0  0  0  0
  -10.7304   14.0247   66.8209 C   0  0  0  0  0  0  0  0  0  0  0  0
  -11.1003   13.0895   66.2465 N   0  0  0  0  0  0  0  0  0  0  0  0
   -7.0275   18.2876   67.7219 C   0  0  0  0  0  0  0  0  0  0  0  0
  -10.0126   16.3511   72.1395 C   0  0  0  0  0  0  0  0  0  0  0  0
  -10.4883   16.2212   73.4591 C   0  0  0  0  0  0  0  0  0  0  0  0
  -11.8103   15.8022   73.6966 C   0  0  0  0  0  0  0  0  0  0  0  0
  -12.6594   15.5153   72.6113 C   0  0  0  0  0  0  0  0  0  0  0  0
  -12.1896   15.6561   71.2886 C   0  0  0  0  0  0  0  0  0  0  0  0
  -12.3486   15.5799   75.3255 Cl  0  0  0  0  0  0  0  0  0  0  0  0
   -6.4523   19.3079   67.8835 C   0  0  0  0  0  0  0  0  0  0  0  0
   -4.9674   19.3665   67.8795 C   0  0  0  0  0  0  0  0  0  0  0  0
   -4.2474   20.6429   68.0405 C   0  0  0  0  0  0  0  0  0  0  0  0
   -2.7799   20.4585   67.8108 C   0  0  0  0  0  0  0  0  0  0  0  0
   -2.3240   19.1822   67.4828 N   0  0  0  0  0  0  0  0  0  0  0  0
   -4.1163   18.2716   67.8983 C   0  0  0  0  0  0  0  0  0  0  0  0
   -2.9140   18.1172   67.6404 C   0  0  0  0  0  0  0  0  0  0  0  0
  -14.1198   14.9552   72.8036 C   0  0  0  0  0  0  0  0  0  0  0  0
  1  2  2  0
  1  6  1  0
  1 11  1  0
  2  3  1  0
  3  4  1  0
  3  7  1  0
  4  9  2  0
  4  5  1  0
  5  6  1  0
  5  8  1  0
  6 10  2  0
  8 13  1  0
 11 12  3  0
 16 19  1  0
 13 20  1  0
 20 21  1  0
 17 27  1  0
 21 22  2  0
 22 23  1  0
 23 24  2  0
 24 26  1  0
 26 25  2  0
 25 21  1  0
  7 18  2  0
 18 17  1  0
 17 16  2  0
 16 15  1  0
 15 14  2  0
 14  7  1  0
M  END

$$$$
No_465-gen_results_new/Mpro_initial_molecule_p3/2024-06-19-20-31-25/
     RDKit          3D

 28 30  0  0  0  0  0  0  0  0999 V2000
  -10.3383   15.1532   67.5971 C   0  0  0  0  0  0  0  0  0  0  0  0
  -10.7220   15.1619   68.8301 N   0  0  0  0  0  0  0  0  0  0  0  0
  -10.4044   16.2024   69.6852 N   0  0  0  0  0  0  0  0  0  0  0  0
   -9.7271   17.3221   69.2607 C   0  0  0  0  0  0  0  0  0  0  0  0
   -9.3095   17.3212   67.9557 N   0  0  0  0  0  0  0  0  0  0  0  0
   -9.5450   16.2958   67.0814 C   0  0  0  0  0  0  0  0  0  0  0  0
  -10.8644   16.0907   71.0374 C   0  0  0  0  0  0  0  0  0  0  0  0
   -8.5330   18.4792   67.4604 C   0  0  0  0  0  0  0  0  0  0  0  0
   -9.5433   18.2987   69.9938 O   0  0  0  0  0  0  0  0  0  0  0  0
   -9.1481   16.2876   65.9124 O   0  0  0  0  0  0  0  0  0  0  0  0
  -10.7304   14.0247   66.8209 C   0  0  0  0  0  0  0  0  0  0  0  0
  -11.1003   13.0895   66.2465 N   0  0  0  0  0  0  0  0  0  0  0  0
   -7.0275   18.2876   67.7219 C   0  0  0  0  0  0  0  0  0  0  0  0
  -10.0126   16.3511   72.1395 C   0  0  0  0  0  0  0  0  0  0  0  0
  -10.4883   16.2212   73.4591 C   0  0  0  0  0  0  0  0  0  0  0  0
  -11.8103   15.8022   73.6966 C   0  0  0  0  0  0  0  0  0  0  0  0
  -12.6594   15.5153   72.6113 C   0  0  0  0  0  0  0  0  0  0  0  0
  -12.1896   15.6561   71.2886 C   0  0  0  0  0  0  0  0  0  0  0  0
  -12.3486   15.5799   75.3255 Cl  0  0  0  0  0  0  0  0  0  0  0  0
   -6.5344   17.3734   68.3696 C   0  0  0  0  0  0  0  0  0  0  0  0
   -5.0729   17.5397   68.5445 C   0  0  0  0  0  0  0  0  0  0  0  0
   -4.5312   18.4042   67.7447 C   0  0  0  0  0  0  0  0  0  0  0  0
   -5.0195   19.2703   66.9557 C   0  0  0  0  0  0  0  0  0  0  0  0
   -6.4017   19.1936   66.8176 C   0  0  0  0  0  0  0  0  0  0  0  0
  -14.1197   14.9540   72.8038 C   0  0  0  0  0  0  0  0  0  0  0  0
   -4.2886   20.1452   66.1904 N   0  0  0  0  0  0  0  0  0  0  0  0
   -4.0365   19.9751   64.9539 C   0  0  0  0  0  0  0  0  0  0  0  0
   -3.1696   20.9039   64.2633 C   0  0  0  0  0  0  0  0  0  0  0  0
  1  2  2  0
  1  6  1  0
  1 11  1  0
  2  3  1  0
  3  4  1  0
  3  7  1  0
  4  9  2  0
  4  5  1  0
  5  6  1  0
  5  8  1  0
  6 10  2  0
  8 13  1  0
 11 12  3  0
 16 19  1  0
 17 25  1  0
 23 26  1  0
 26 27  1  0
 27 28  1  0
 13 20  2  0
 20 21  1  0
 21 22  2  0
 22 23  1  0
 23 24  2  0
 24 13  1  0
  7 18  2  0
 18 17  1  0
 17 16  2  0
 16 15  1  0
 15 14  2  0
 14  7  1  0
M  END

$$$$
No_466-gen_results_new/Mpro_initial_molecule_p3/2024-06-19-20-31-25/
     RDKit          3D

 28 30  0  0  0  0  0  0  0  0999 V2000
  -10.3383   15.1532   67.5971 C   0  0  0  0  0  0  0  0  0  0  0  0
  -10.7220   15.1619   68.8301 N   0  0  0  0  0  0  0  0  0  0  0  0
  -10.4044   16.2024   69.6852 N   0  0  0  0  0  0  0  0  0  0  0  0
   -9.7271   17.3221   69.2607 C   0  0  0  0  0  0  0  0  0  0  0  0
   -9.3095   17.3212   67.9557 N   0  0  0  0  0  0  0  0  0  0  0  0
   -9.5450   16.2958   67.0814 C   0  0  0  0  0  0  0  0  0  0  0  0
  -10.8644   16.0907   71.0374 C   0  0  0  0  0  0  0  0  0  0  0  0
   -8.5330   18.4792   67.4604 C   0  0  0  0  0  0  0  0  0  0  0  0
   -9.5433   18.2987   69.9938 O   0  0  0  0  0  0  0  0  0  0  0  0
   -9.1481   16.2876   65.9124 O   0  0  0  0  0  0  0  0  0  0  0  0
  -10.7304   14.0247   66.8209 C   0  0  0  0  0  0  0  0  0  0  0  0
  -11.1003   13.0895   66.2465 N   0  0  0  0  0  0  0  0  0  0  0  0
   -7.0275   18.2876   67.7219 C   0  0  0  0  0  0  0  0  0  0  0  0
  -10.0126   16.3511   72.1395 C   0  0  0  0  0  0  0  0  0  0  0  0
  -10.4883   16.2212   73.4591 C   0  0  0  0  0  0  0  0  0  0  0  0
  -11.8103   15.8022   73.6966 C   0  0  0  0  0  0  0  0  0  0  0  0
  -12.6594   15.5153   72.6113 C   0  0  0  0  0  0  0  0  0  0  0  0
  -12.1896   15.6561   71.2886 C   0  0  0  0  0  0  0  0  0  0  0  0
  -12.2484   15.6088   75.0145 O   0  0  0  0  0  0  0  0  0  0  0  0
   -6.5341   17.3731   68.3686 C   0  0  0  0  0  0  0  0  0  0  0  0
   -5.1247   17.1828   68.5818 C   0  0  0  0  0  0  0  0  0  0  0  0
   -4.5174   16.0737   69.5073 S   0  0  0  0  0  0  0  0  0  0  0  0
   -5.1411   15.5960   70.1440 O   0  0  0  0  0  0  0  0  0  0  0  0
   -3.7182   14.7640   68.5082 C   0  0  0  0  0  0  0  0  0  0  0  0
   -3.3868   16.8331   70.1730 O   0  0  0  0  0  0  0  0  0  0  0  0
   -6.1598   19.2058   67.1058 C   0  0  0  0  0  0  0  0  0  0  0  0
   -4.8586   19.2171   67.2385 C   0  0  0  0  0  0  0  0  0  0  0  0
   -4.2818   18.1862   68.0383 C   0  0  0  0  0  0  0  0  0  0  0  0
  1  2  2  0
  1  6  1  0
  1 11  1  0
  2  3  1  0
  3  4  1  0
  3  7  1  0
  4  9  2  0
  4  5  1  0
  5  6  1  0
  5  8  1  0
  6 10  2  0
  8 13  1  0
 11 12  3  0
 16 19  1  0
 21 22  1  0
 22 23  2  0
 22 24  1  0
 22 25  2  0
 13 20  2  0
 20 21  1  0
 21 28  2  0
 28 27  1  0
 27 26  2  0
 26 13  1  0
  7 18  2  0
 18 17  1  0
 17 16  2  0
 16 15  1  0
 15 14  2  0
 14  7  1  0
M  END

$$$$
No_467-gen_results_new/Mpro_initial_molecule_p3/2024-06-19-20-31-25/
     RDKit          3D

 28 30  0  0  0  0  0  0  0  0999 V2000
  -10.3383   15.1532   67.5971 C   0  0  0  0  0  0  0  0  0  0  0  0
  -10.7220   15.1619   68.8301 N   0  0  0  0  0  0  0  0  0  0  0  0
  -10.4044   16.2024   69.6852 N   0  0  0  0  0  0  0  0  0  0  0  0
   -9.7271   17.3221   69.2607 C   0  0  0  0  0  0  0  0  0  0  0  0
   -9.3095   17.3212   67.9557 N   0  0  0  0  0  0  0  0  0  0  0  0
   -9.5450   16.2958   67.0814 C   0  0  0  0  0  0  0  0  0  0  0  0
  -10.8644   16.0907   71.0374 C   0  0  0  0  0  0  0  0  0  0  0  0
   -8.5330   18.4792   67.4604 C   0  0  0  0  0  0  0  0  0  0  0  0
   -9.5433   18.2987   69.9938 O   0  0  0  0  0  0  0  0  0  0  0  0
   -9.1481   16.2876   65.9124 O   0  0  0  0  0  0  0  0  0  0  0  0
  -10.7304   14.0247   66.8209 C   0  0  0  0  0  0  0  0  0  0  0  0
  -11.1003   13.0895   66.2465 N   0  0  0  0  0  0  0  0  0  0  0  0
   -7.0275   18.2876   67.7219 C   0  0  0  0  0  0  0  0  0  0  0  0
  -10.0126   16.3511   72.1395 C   0  0  0  0  0  0  0  0  0  0  0  0
  -10.4883   16.2212   73.4591 C   0  0  0  0  0  0  0  0  0  0  0  0
  -11.8103   15.8022   73.6966 C   0  0  0  0  0  0  0  0  0  0  0  0
  -12.6594   15.5153   72.6113 C   0  0  0  0  0  0  0  0  0  0  0  0
  -12.1896   15.6561   71.2886 C   0  0  0  0  0  0  0  0  0  0  0  0
  -12.2768   15.6000   75.1088 C   0  0  0  0  0  0  0  0  0  0  0  0
   -6.4522   19.3092   67.8826 C   0  0  0  0  0  0  0  0  0  0  0  0
  -12.5808   16.5955   75.6954 O   0  0  0  0  0  0  0  0  0  0  0  0
  -12.1193   14.5206   75.6006 O   0  0  0  0  0  0  0  0  0  0  0  0
   -6.0927   19.5186   69.0820 C   0  0  0  0  0  0  0  0  0  0  0  0
   -5.6304   18.3158   69.7861 C   0  0  0  0  0  0  0  0  0  0  0  0
   -6.2178   17.0275   69.4778 C   0  0  0  0  0  0  0  0  0  0  0  0
   -7.0292   17.0639   68.3938 C   0  0  0  0  0  0  0  0  0  0  0  0
   -6.5590   20.6806   66.7559 Cl  0  0  0  0  0  0  0  0  0  0  0  0
  -13.9736   15.0120   72.8086 O   0  0  0  0  0  0  0  0  0  0  0  0
  1  2  2  0
  1  6  1  0
  1 11  1  0
  2  3  1  0
  3  4  1  0
  3  7  1  0
  4  9  2  0
  4  5  1  0
  5  6  1  0
  5  8  1  0
  6 10  2  0
  8 13  1  0
 11 12  3  0
 16 19  1  0
 19 21  2  0
 19 22  1  0
 20 27  1  0
 17 28  1  0
 13 20  2  0
 20 23  1  0
 23 24  2  0
 24 25  1  0
 25 26  2  0
 26 13  1  0
  7 18  2  0
 18 17  1  0
 17 16  2  0
 16 15  1  0
 15 14  2  0
 14  7  1  0
M  END

$$$$
No_468-gen_results_new/Mpro_initial_molecule_p3/2024-06-19-20-31-25/
     RDKit          3D

 28 30  0  0  0  0  0  0  0  0999 V2000
  -10.3383   15.1532   67.5971 C   0  0  0  0  0  0  0  0  0  0  0  0
  -10.7220   15.1619   68.8301 N   0  0  0  0  0  0  0  0  0  0  0  0
  -10.4044   16.2024   69.6852 N   0  0  0  0  0  0  0  0  0  0  0  0
   -9.7271   17.3221   69.2607 C   0  0  0  0  0  0  0  0  0  0  0  0
   -9.3095   17.3212   67.9557 N   0  0  0  0  0  0  0  0  0  0  0  0
   -9.5450   16.2958   67.0814 C   0  0  0  0  0  0  0  0  0  0  0  0
  -10.8644   16.0907   71.0374 C   0  0  0  0  0  0  0  0  0  0  0  0
   -8.5330   18.4792   67.4604 C   0  0  0  0  0  0  0  0  0  0  0  0
   -9.5433   18.2987   69.9938 O   0  0  0  0  0  0  0  0  0  0  0  0
   -9.1481   16.2876   65.9124 O   0  0  0  0  0  0  0  0  0  0  0  0
  -10.7304   14.0247   66.8209 C   0  0  0  0  0  0  0  0  0  0  0  0
  -11.1003   13.0895   66.2465 N   0  0  0  0  0  0  0  0  0  0  0  0
   -7.0275   18.2876   67.7219 C   0  0  0  0  0  0  0  0  0  0  0  0
  -10.0126   16.3511   72.1395 C   0  0  0  0  0  0  0  0  0  0  0  0
  -10.4883   16.2212   73.4591 C   0  0  0  0  0  0  0  0  0  0  0  0
  -11.8103   15.8022   73.6966 C   0  0  0  0  0  0  0  0  0  0  0  0
  -12.6594   15.5153   72.6113 C   0  0  0  0  0  0  0  0  0  0  0  0
  -12.1896   15.6561   71.2886 C   0  0  0  0  0  0  0  0  0  0  0  0
  -12.3486   15.5799   75.3255 Cl  0  0  0  0  0  0  0  0  0  0  0  0
   -6.4523   19.3079   67.8835 C   0  0  0  0  0  0  0  0  0  0  0  0
   -4.9276   19.3344   68.2144 C   0  0  0  0  0  0  0  0  0  0  0  0
   -4.2063   20.5661   68.2864 C   0  0  0  0  0  0  0  0  0  0  0  0
   -3.7634   21.1271   67.1730 C   0  0  0  0  0  0  0  0  0  0  0  0
   -3.4277   20.3675   66.0314 C   0  0  0  0  0  0  0  0  0  0  0  0
   -3.7825   18.9131   66.0577 C   0  0  0  0  0  0  0  0  0  0  0  0
   -3.4815   18.2351   64.8624 O   0  0  0  0  0  0  0  0  0  0  0  0
   -4.5622   18.3689   67.0459 C   0  0  0  0  0  0  0  0  0  0  0  0
   -2.8069   17.1799   64.8116 C   0  0  0  0  0  0  0  0  0  0  0  0
  1  2  2  0
  1  6  1  0
  1 11  1  0
  2  3  1  0
  3  4  1  0
  3  7  1  0
  4  9  2  0
  4  5  1  0
  5  6  1  0
  5  8  1  0
  6 10  2  0
  8 13  1  0
 11 12  3  0
 16 19  1  0
 13 20  2  3
 20 21  1  0
 25 26  1  0
 26 28  1  0
 21 22  2  0
 22 23  1  0
 23 24  2  0
 24 25  1  0
 25 27  2  0
 27 21  1  0
  7 18  2  0
 18 17  1  0
 17 16  2  0
 16 15  1  0
 15 14  2  0
 14  7  1  0
M  END

$$$$
No_469-gen_results_new/Mpro_initial_molecule_p3/2024-06-19-20-31-25/
     RDKit          3D

 28 30  0  0  0  0  0  0  0  0999 V2000
  -10.3383   15.1532   67.5971 C   0  0  0  0  0  0  0  0  0  0  0  0
  -10.7220   15.1619   68.8301 N   0  0  0  0  0  0  0  0  0  0  0  0
  -10.4044   16.2024   69.6852 N   0  0  0  0  0  0  0  0  0  0  0  0
   -9.7271   17.3221   69.2607 C   0  0  0  0  0  0  0  0  0  0  0  0
   -9.3095   17.3212   67.9557 N   0  0  0  0  0  0  0  0  0  0  0  0
   -9.5450   16.2958   67.0814 C   0  0  0  0  0  0  0  0  0  0  0  0
  -10.8644   16.0907   71.0374 C   0  0  0  0  0  0  0  0  0  0  0  0
   -8.5330   18.4792   67.4604 C   0  0  0  0  0  0  0  0  0  0  0  0
   -9.5433   18.2987   69.9938 O   0  0  0  0  0  0  0  0  0  0  0  0
   -9.1481   16.2876   65.9124 O   0  0  0  0  0  0  0  0  0  0  0  0
  -10.7304   14.0247   66.8209 C   0  0  0  0  0  0  0  0  0  0  0  0
  -11.1003   13.0895   66.2465 N   0  0  0  0  0  0  0  0  0  0  0  0
   -7.0275   18.2876   67.7219 C   0  0  0  0  0  0  0  0  0  0  0  0
  -10.0126   16.3511   72.1395 C   0  0  0  0  0  0  0  0  0  0  0  0
  -10.4883   16.2212   73.4591 C   0  0  0  0  0  0  0  0  0  0  0  0
  -11.8103   15.8022   73.6966 C   0  0  0  0  0  0  0  0  0  0  0  0
  -12.6594   15.5153   72.6113 C   0  0  0  0  0  0  0  0  0  0  0  0
  -12.1896   15.6561   71.2886 C   0  0  0  0  0  0  0  0  0  0  0  0
  -12.3486   15.5799   75.3255 Cl  0  0  0  0  0  0  0  0  0  0  0  0
   -6.4859   19.1435   67.9014 N   0  0  0  0  0  0  0  0  0  0  0  0
   -5.0872   19.0454   67.7891 C   0  0  0  0  0  0  0  0  0  0  0  0
   -4.6168   17.7842   67.2447 C   0  0  0  0  0  0  0  0  0  0  0  0
   -3.2458   17.5080   66.9762 C   0  0  0  0  0  0  0  0  0  0  0  0
   -2.4264   18.5188   67.1414 C   0  0  0  0  0  0  0  0  0  0  0  0
   -4.0807   19.9588   67.9448 C   0  0  0  0  0  0  0  0  0  0  0  0
   -2.7415   19.7799   67.6405 C   0  0  0  0  0  0  0  0  0  0  0  0
  -14.1199   14.9544   72.8028 C   0  0  0  0  0  0  0  0  0  0  0  0
   -4.5507   21.2545   68.3812 F   0  0  0  0  0  0  0  0  0  0  0  0
  1  2  2  0
  1  6  1  0
  1 11  1  0
  2  3  1  0
  3  4  1  0
  3  7  1  0
  4  9  2  0
  4  5  1  0
  5  6  1  0
  5  8  1  0
  6 10  2  0
  8 13  1  0
 11 12  3  0
 16 19  1  0
 13 20  1  0
 20 21  1  0
 17 27  1  0
 25 28  1  0
 21 22  2  0
 22 23  1  0
 23 24  2  0
 24 26  1  0
 26 25  2  0
 25 21  1  0
  7 18  2  0
 18 17  1  0
 17 16  2  0
 16 15  1  0
 15 14  2  0
 14  7  1  0
M  END

$$$$
No_470-gen_results_new/Mpro_initial_molecule_p3/2024-06-19-20-31-25/
     RDKit          3D

 28 30  0  0  0  0  0  0  0  0999 V2000
  -10.3383   15.1532   67.5971 C   0  0  0  0  0  0  0  0  0  0  0  0
  -10.7220   15.1619   68.8301 N   0  0  0  0  0  0  0  0  0  0  0  0
  -10.4044   16.2024   69.6852 N   0  0  0  0  0  0  0  0  0  0  0  0
   -9.7271   17.3221   69.2607 C   0  0  0  0  0  0  0  0  0  0  0  0
   -9.3095   17.3212   67.9557 N   0  0  0  0  0  0  0  0  0  0  0  0
   -9.5450   16.2958   67.0814 C   0  0  0  0  0  0  0  0  0  0  0  0
  -10.8644   16.0907   71.0374 C   0  0  0  0  0  0  0  0  0  0  0  0
   -8.5330   18.4792   67.4604 C   0  0  0  0  0  0  0  0  0  0  0  0
   -9.5433   18.2987   69.9938 O   0  0  0  0  0  0  0  0  0  0  0  0
   -9.1481   16.2876   65.9124 O   0  0  0  0  0  0  0  0  0  0  0  0
  -10.7304   14.0247   66.8209 C   0  0  0  0  0  0  0  0  0  0  0  0
  -11.1003   13.0895   66.2465 N   0  0  0  0  0  0  0  0  0  0  0  0
   -7.0275   18.2876   67.7219 C   0  0  0  0  0  0  0  0  0  0  0  0
  -10.0126   16.3511   72.1395 C   0  0  0  0  0  0  0  0  0  0  0  0
  -10.4883   16.2212   73.4591 C   0  0  0  0  0  0  0  0  0  0  0  0
  -11.8103   15.8022   73.6966 C   0  0  0  0  0  0  0  0  0  0  0  0
  -12.6594   15.5153   72.6113 C   0  0  0  0  0  0  0  0  0  0  0  0
  -12.1896   15.6561   71.2886 C   0  0  0  0  0  0  0  0  0  0  0  0
  -12.3486   15.5799   75.3255 Cl  0  0  0  0  0  0  0  0  0  0  0  0
   -6.5344   17.3734   68.3696 C   0  0  0  0  0  0  0  0  0  0  0  0
   -5.1249   17.1828   68.5820 C   0  0  0  0  0  0  0  0  0  0  0  0
   -4.4394   18.0509   67.8370 C   0  0  0  0  0  0  0  0  0  0  0  0
   -3.0584   18.0550   67.8113 C   0  0  0  0  0  0  0  0  0  0  0  0
   -6.0960   19.0560   67.0486 C   0  0  0  0  0  0  0  0  0  0  0  0
   -6.8297   19.9900   66.2707 F   0  0  0  0  0  0  0  0  0  0  0  0
   -4.9040   18.9749   67.0305 C   0  0  0  0  0  0  0  0  0  0  0  0
   -2.3830   18.5778   68.9352 N   0  0  0  0  0  0  0  0  0  0  0  0
   -2.2486   17.5386   66.9777 O   0  0  0  0  0  0  0  0  0  0  0  0
  1  2  2  0
  1  6  1  0
  1 11  1  0
  2  3  1  0
  3  4  1  0
  3  7  1  0
  4  9  2  0
  4  5  1  0
  5  6  1  0
  5  8  1  0
  6 10  2  0
  8 13  1  0
 11 12  3  0
 16 19  1  0
 22 23  1  0
 24 25  1  0
 23 27  1  0
 23 28  2  0
 13 20  2  0
 20 21  1  0
 21 22  2  0
 22 26  1  0
 26 24  2  0
 24 13  1  0
  7 18  2  0
 18 17  1  0
 17 16  2  0
 16 15  1  0
 15 14  2  0
 14  7  1  0
M  END

$$$$
No_471-gen_results_new/Mpro_initial_molecule_p3/2024-06-19-20-31-25/
     RDKit          3D

 25 27  0  0  0  0  0  0  0  0999 V2000
  -10.3383   15.1532   67.5971 C   0  0  0  0  0  0  0  0  0  0  0  0
  -10.7220   15.1619   68.8301 N   0  0  0  0  0  0  0  0  0  0  0  0
  -10.4044   16.2024   69.6852 N   0  0  0  0  0  0  0  0  0  0  0  0
   -9.7271   17.3221   69.2607 C   0  0  0  0  0  0  0  0  0  0  0  0
   -9.3095   17.3212   67.9557 N   0  0  0  0  0  0  0  0  0  0  0  0
   -9.5450   16.2958   67.0814 C   0  0  0  0  0  0  0  0  0  0  0  0
  -10.8644   16.0907   71.0374 C   0  0  0  0  0  0  0  0  0  0  0  0
   -8.5330   18.4792   67.4604 C   0  0  0  0  0  0  0  0  0  0  0  0
   -9.5433   18.2987   69.9938 O   0  0  0  0  0  0  0  0  0  0  0  0
   -9.1481   16.2876   65.9124 O   0  0  0  0  0  0  0  0  0  0  0  0
  -10.7304   14.0247   66.8209 C   0  0  0  0  0  0  0  0  0  0  0  0
  -11.1003   13.0895   66.2465 N   0  0  0  0  0  0  0  0  0  0  0  0
   -7.0275   18.2876   67.7219 C   0  0  0  0  0  0  0  0  0  0  0  0
  -10.0126   16.3511   72.1395 C   0  0  0  0  0  0  0  0  0  0  0  0
  -10.4883   16.2212   73.4591 C   0  0  0  0  0  0  0  0  0  0  0  0
  -11.8103   15.8022   73.6966 C   0  0  0  0  0  0  0  0  0  0  0  0
  -12.6594   15.5153   72.6113 C   0  0  0  0  0  0  0  0  0  0  0  0
  -12.1896   15.6561   71.2886 C   0  0  0  0  0  0  0  0  0  0  0  0
  -12.3486   15.5799   75.3255 Cl  0  0  0  0  0  0  0  0  0  0  0  0
   -6.3058   19.3592   66.9157 C   0  0  0  0  0  0  0  0  0  0  0  0
   -6.9578   20.4799   66.4326 C   0  0  0  0  0  0  0  0  0  0  0  0
   -8.3627   20.5502   66.3747 C   0  0  0  0  0  0  0  0  0  0  0  0
   -9.1136   21.8314   65.6434 Cl  0  0  0  0  0  0  0  0  0  0  0  0
   -9.1778   19.3773   66.8447 C   0  0  0  0  0  0  0  0  0  0  0  0
   -6.3824   17.1750   68.3004 C   0  0  0  0  0  0  0  0  0  0  0  0
  1  2  2  0
  1  6  1  0
  1 11  1  0
  2  3  1  0
  3  4  1  0
  3  7  1  0
  4  9  2  0
  4  5  1  0
  5  6  1  0
  5  8  1  0
  6 10  2  0
 11 12  3  0
 16 19  1  0
 22 23  1  0
 13 25  1  0
  8 13  2  0
 13 20  1  0
 20 21  2  0
 21 22  1  0
 22 24  2  0
 24  8  1  0
  7 18  2  0
 18 17  1  0
 17 16  2  0
 16 15  1  0
 15 14  2  0
 14  7  1  0
M  END

$$$$
No_472-gen_results_new/Mpro_initial_molecule_p3/2024-06-19-20-31-25/
     RDKit          3D

 28 30  0  0  0  0  0  0  0  0999 V2000
  -10.3383   15.1532   67.5971 C   0  0  0  0  0  0  0  0  0  0  0  0
  -10.7220   15.1619   68.8301 N   0  0  0  0  0  0  0  0  0  0  0  0
  -10.4044   16.2024   69.6852 N   0  0  0  0  0  0  0  0  0  0  0  0
   -9.7271   17.3221   69.2607 C   0  0  0  0  0  0  0  0  0  0  0  0
   -9.3095   17.3212   67.9557 N   0  0  0  0  0  0  0  0  0  0  0  0
   -9.5450   16.2958   67.0814 C   0  0  0  0  0  0  0  0  0  0  0  0
  -10.8644   16.0907   71.0374 C   0  0  0  0  0  0  0  0  0  0  0  0
   -8.5330   18.4792   67.4604 C   0  0  0  0  0  0  0  0  0  0  0  0
   -9.5433   18.2987   69.9938 O   0  0  0  0  0  0  0  0  0  0  0  0
   -9.1481   16.2876   65.9124 O   0  0  0  0  0  0  0  0  0  0  0  0
  -10.7304   14.0247   66.8209 C   0  0  0  0  0  0  0  0  0  0  0  0
  -11.1003   13.0895   66.2465 N   0  0  0  0  0  0  0  0  0  0  0  0
   -7.0275   18.2876   67.7219 C   0  0  0  0  0  0  0  0  0  0  0  0
  -10.0126   16.3511   72.1395 C   0  0  0  0  0  0  0  0  0  0  0  0
  -10.4883   16.2212   73.4591 C   0  0  0  0  0  0  0  0  0  0  0  0
  -11.8103   15.8022   73.6966 C   0  0  0  0  0  0  0  0  0  0  0  0
  -12.6594   15.5153   72.6113 C   0  0  0  0  0  0  0  0  0  0  0  0
  -12.1896   15.6561   71.2886 C   0  0  0  0  0  0  0  0  0  0  0  0
  -12.3486   15.5799   75.3255 Cl  0  0  0  0  0  0  0  0  0  0  0  0
   -6.5558   17.2018   67.9045 O   0  0  0  0  0  0  0  0  0  0  0  0
   -6.4130   19.3147   68.0692 N   0  0  0  0  0  0  0  0  0  0  0  0
   -5.0756   19.6793   68.2968 C   0  0  0  0  0  0  0  0  0  0  0  0
   -4.3232   20.1047   67.2613 C   0  0  0  0  0  0  0  0  0  0  0  0
   -3.6182   19.2686   66.6780 C   0  0  0  0  0  0  0  0  0  0  0  0
   -3.3029   18.0243   67.1529 N   0  0  0  0  0  0  0  0  0  0  0  0
   -4.2585   18.5276   68.9043 C   0  0  0  0  0  0  0  0  0  0  0  0
   -3.4505   17.8391   68.3831 C   0  0  0  0  0  0  0  0  0  0  0  0
   -5.0952   21.0152   66.3474 N   0  0  0  0  0  0  0  0  0  0  0  0
  1  2  2  0
  1  6  1  0
  1 11  1  0
  2  3  1  0
  3  4  1  0
  3  7  1  0
  4  9  2  0
  4  5  1  0
  5  6  1  0
  5  8  1  0
  6 10  2  0
  8 13  1  0
 11 12  3  0
 16 19  1  0
 13 20  2  0
 13 21  1  0
 21 22  1  0
 23 28  1  0
 22 23  2  0
 23 24  1  0
 24 25  2  0
 25 27  1  0
 27 26  2  0
 26 22  1  0
  7 18  2  0
 18 17  1  0
 17 16  2  0
 16 15  1  0
 15 14  2  0
 14  7  1  0
M  END

$$$$
No_473-gen_results_new/Mpro_initial_molecule_p3/2024-06-19-20-31-25/
     RDKit          3D

 28 30  0  0  0  0  0  0  0  0999 V2000
  -10.3383   15.1532   67.5971 C   0  0  0  0  0  0  0  0  0  0  0  0
  -10.7220   15.1619   68.8301 N   0  0  0  0  0  0  0  0  0  0  0  0
  -10.4044   16.2024   69.6852 N   0  0  0  0  0  0  0  0  0  0  0  0
   -9.7271   17.3221   69.2607 C   0  0  0  0  0  0  0  0  0  0  0  0
   -9.3095   17.3212   67.9557 N   0  0  0  0  0  0  0  0  0  0  0  0
   -9.5450   16.2958   67.0814 C   0  0  0  0  0  0  0  0  0  0  0  0
  -10.8644   16.0907   71.0374 C   0  0  0  0  0  0  0  0  0  0  0  0
   -8.5330   18.4792   67.4604 C   0  0  0  0  0  0  0  0  0  0  0  0
   -9.5433   18.2987   69.9938 O   0  0  0  0  0  0  0  0  0  0  0  0
   -9.1481   16.2876   65.9124 O   0  0  0  0  0  0  0  0  0  0  0  0
  -10.7304   14.0247   66.8209 C   0  0  0  0  0  0  0  0  0  0  0  0
  -11.1003   13.0895   66.2465 N   0  0  0  0  0  0  0  0  0  0  0  0
   -7.0275   18.2876   67.7219 C   0  0  0  0  0  0  0  0  0  0  0  0
  -10.0126   16.3511   72.1395 C   0  0  0  0  0  0  0  0  0  0  0  0
  -10.4883   16.2212   73.4591 C   0  0  0  0  0  0  0  0  0  0  0  0
  -11.8103   15.8022   73.6966 C   0  0  0  0  0  0  0  0  0  0  0  0
  -12.6594   15.5153   72.6113 C   0  0  0  0  0  0  0  0  0  0  0  0
  -12.1896   15.6561   71.2886 C   0  0  0  0  0  0  0  0  0  0  0  0
  -12.2484   15.6088   75.0145 O   0  0  0  0  0  0  0  0  0  0  0  0
   -6.5341   17.3731   68.3686 C   0  0  0  0  0  0  0  0  0  0  0  0
   -5.1247   17.1828   68.5818 C   0  0  0  0  0  0  0  0  0  0  0  0
   -4.4393   18.0516   67.8375 C   0  0  0  0  0  0  0  0  0  0  0  0
   -2.8541   17.9857   67.8776 S   0  0  0  0  0  0  0  0  0  0  0  0
   -6.2152   19.1376   67.0198 C   0  0  0  0  0  0  0  0  0  0  0  0
   -4.9507   19.0971   67.1076 C   0  0  0  0  0  0  0  0  0  0  0  0
   -2.1056   18.5745   67.0489 O   0  0  0  0  0  0  0  0  0  0  0  0
   -2.3596   18.4640   69.4535 N   0  0  0  0  0  0  0  0  0  0  0  0
   -2.4233   16.4549   67.8551 O   0  0  0  0  0  0  0  0  0  0  0  0
  1  2  2  0
  1  6  1  0
  1 11  1  0
  2  3  1  0
  3  4  1  0
  3  7  1  0
  4  9  2  0
  4  5  1  0
  5  6  1  0
  5  8  1  0
  6 10  2  0
  8 13  1  0
 11 12  3  0
 16 19  1  0
 22 23  1  0
 23 26  2  0
 23 27  1  0
 23 28  2  0
 13 20  2  0
 20 21  1  0
 21 22  2  0
 22 25  1  0
 25 24  2  0
 24 13  1  0
  7 18  2  0
 18 17  1  0
 17 16  2  0
 16 15  1  0
 15 14  2  0
 14  7  1  0
M  END

$$$$
No_474-gen_results_new/Mpro_initial_molecule_p3/2024-06-19-20-31-25/
     RDKit          3D

 28 30  0  0  0  0  0  0  0  0999 V2000
  -10.3383   15.1532   67.5971 C   0  0  0  0  0  0  0  0  0  0  0  0
  -10.7220   15.1619   68.8301 N   0  0  0  0  0  0  0  0  0  0  0  0
  -10.4044   16.2024   69.6852 N   0  0  0  0  0  0  0  0  0  0  0  0
   -9.7271   17.3221   69.2607 C   0  0  0  0  0  0  0  0  0  0  0  0
   -9.3095   17.3212   67.9557 N   0  0  0  0  0  0  0  0  0  0  0  0
   -9.5450   16.2958   67.0814 C   0  0  0  0  0  0  0  0  0  0  0  0
  -10.8644   16.0907   71.0374 C   0  0  0  0  0  0  0  0  0  0  0  0
   -8.5330   18.4792   67.4604 C   0  0  0  0  0  0  0  0  0  0  0  0
   -9.5433   18.2987   69.9938 O   0  0  0  0  0  0  0  0  0  0  0  0
   -9.1481   16.2876   65.9124 O   0  0  0  0  0  0  0  0  0  0  0  0
  -10.7304   14.0247   66.8209 C   0  0  0  0  0  0  0  0  0  0  0  0
  -11.1003   13.0895   66.2465 N   0  0  0  0  0  0  0  0  0  0  0  0
   -7.0275   18.2876   67.7219 C   0  0  0  0  0  0  0  0  0  0  0  0
  -10.0126   16.3511   72.1395 C   0  0  0  0  0  0  0  0  0  0  0  0
  -10.4883   16.2212   73.4591 C   0  0  0  0  0  0  0  0  0  0  0  0
  -11.8103   15.8022   73.6966 C   0  0  0  0  0  0  0  0  0  0  0  0
  -12.6594   15.5153   72.6113 C   0  0  0  0  0  0  0  0  0  0  0  0
  -12.1896   15.6561   71.2886 C   0  0  0  0  0  0  0  0  0  0  0  0
  -12.3486   15.5799   75.3255 Cl  0  0  0  0  0  0  0  0  0  0  0  0
   -6.5344   17.3734   68.3696 C   0  0  0  0  0  0  0  0  0  0  0  0
   -5.1310   17.1884   68.5570 C   0  0  0  0  0  0  0  0  0  0  0  0
   -6.2282   19.1878   66.9085 C   0  0  0  0  0  0  0  0  0  0  0  0
   -6.6903   20.2577   66.0908 C   0  0  0  0  0  0  0  0  0  0  0  0
   -4.2962   18.0595   67.8350 C   0  0  0  0  0  0  0  0  0  0  0  0
   -4.8139   19.0391   67.0576 C   0  0  0  0  0  0  0  0  0  0  0  0
   -8.0182   20.3976   65.9568 O   0  0  0  0  0  0  0  0  0  0  0  0
   -6.0077   21.0415   65.4831 O   0  0  0  0  0  0  0  0  0  0  0  0
   -4.5594   16.0984   69.4178 C   0  0  0  0  0  0  0  0  0  0  0  0
  1  2  2  0
  1  6  1  0
  1 11  1  0
  2  3  1  0
  3  4  1  0
  3  7  1  0
  4  9  2  0
  4  5  1  0
  5  6  1  0
  5  8  1  0
  6 10  2  0
  8 13  1  0
 11 12  3  0
 16 19  1  0
 22 23  1  0
 23 26  2  0
 23 27  1  0
 21 28  1  0
  7 18  2  0
 18 17  1  0
 17 16  2  0
 16 15  1  0
 15 14  2  0
 14  7  1  0
 13 20  2  0
 20 21  1  0
 21 24  2  0
 24 25  1  0
 25 22  2  0
 22 13  1  0
M  END

$$$$
No_475-gen_results_new/Mpro_initial_molecule_p3/2024-06-19-20-31-25/
     RDKit          3D

 28 30  0  0  0  0  0  0  0  0999 V2000
  -10.3383   15.1532   67.5971 C   0  0  0  0  0  0  0  0  0  0  0  0
  -10.7220   15.1619   68.8301 N   0  0  0  0  0  0  0  0  0  0  0  0
  -10.4044   16.2024   69.6852 N   0  0  0  0  0  0  0  0  0  0  0  0
   -9.7271   17.3221   69.2607 C   0  0  0  0  0  0  0  0  0  0  0  0
   -9.3095   17.3212   67.9557 N   0  0  0  0  0  0  0  0  0  0  0  0
   -9.5450   16.2958   67.0814 C   0  0  0  0  0  0  0  0  0  0  0  0
  -10.8644   16.0907   71.0374 C   0  0  0  0  0  0  0  0  0  0  0  0
   -8.5330   18.4792   67.4604 C   0  0  0  0  0  0  0  0  0  0  0  0
   -9.5433   18.2987   69.9938 O   0  0  0  0  0  0  0  0  0  0  0  0
   -9.1481   16.2876   65.9124 O   0  0  0  0  0  0  0  0  0  0  0  0
  -10.7304   14.0247   66.8209 C   0  0  0  0  0  0  0  0  0  0  0  0
  -11.1003   13.0895   66.2465 N   0  0  0  0  0  0  0  0  0  0  0  0
   -7.0275   18.2876   67.7219 C   0  0  0  0  0  0  0  0  0  0  0  0
  -10.0126   16.3511   72.1395 C   0  0  0  0  0  0  0  0  0  0  0  0
  -10.4883   16.2212   73.4591 C   0  0  0  0  0  0  0  0  0  0  0  0
  -11.8103   15.8022   73.6966 C   0  0  0  0  0  0  0  0  0  0  0  0
  -12.6594   15.5153   72.6113 C   0  0  0  0  0  0  0  0  0  0  0  0
  -12.1896   15.6561   71.2886 C   0  0  0  0  0  0  0  0  0  0  0  0
  -12.2484   15.6088   75.0145 O   0  0  0  0  0  0  0  0  0  0  0  0
   -6.4522   19.3083   67.8828 C   0  0  0  0  0  0  0  0  0  0  0  0
   -6.2010   19.5450   69.0274 C   0  0  0  0  0  0  0  0  0  0  0  0
   -5.0263   20.3355   69.5307 C   0  0  0  0  0  0  0  0  0  0  0  0
   -4.1483   20.7184   68.5720 C   0  0  0  0  0  0  0  0  0  0  0  0
   -4.2148   20.2848   67.2279 C   0  0  0  0  0  0  0  0  0  0  0  0
   -5.3305   19.5326   66.8694 C   0  0  0  0  0  0  0  0  0  0  0  0
   -3.1532   20.8335   66.0193 Cl  0  0  0  0  0  0  0  0  0  0  0  0
  -11.8766   16.5253   75.9060 C   0  0  0  0  0  0  0  0  0  0  0  0
   -5.5161   19.1611   65.5211 O   0  0  0  0  0  0  0  0  0  0  0  0
  1  2  2  0
  1  6  1  0
  1 11  1  0
  2  3  1  0
  3  4  1  0
  3  7  1  0
  4  9  2  0
  4  5  1  0
  5  6  1  0
  5  8  1  0
  6 10  2  0
  8 13  1  0
 11 12  3  0
 16 19  1  0
 13 20  1  0
 24 26  1  0
 19 27  1  0
 25 28  1  0
 20 21  2  0
 21 22  1  0
 22 23  2  0
 23 24  1  0
 24 25  2  0
 25 20  1  0
  7 18  2  0
 18 17  1  0
 17 16  2  0
 16 15  1  0
 15 14  2  0
 14  7  1  0
M  END

$$$$
No_476-gen_results_new/Mpro_initial_molecule_p3/2024-06-19-20-31-25/
     RDKit          3D

 28 30  0  0  0  0  0  0  0  0999 V2000
  -10.3383   15.1532   67.5971 C   0  0  0  0  0  0  0  0  0  0  0  0
  -10.7220   15.1619   68.8301 N   0  0  0  0  0  0  0  0  0  0  0  0
  -10.4044   16.2024   69.6852 N   0  0  0  0  0  0  0  0  0  0  0  0
   -9.7271   17.3221   69.2607 C   0  0  0  0  0  0  0  0  0  0  0  0
   -9.3095   17.3212   67.9557 N   0  0  0  0  0  0  0  0  0  0  0  0
   -9.5450   16.2958   67.0814 C   0  0  0  0  0  0  0  0  0  0  0  0
  -10.8644   16.0907   71.0374 C   0  0  0  0  0  0  0  0  0  0  0  0
   -8.5330   18.4792   67.4604 C   0  0  0  0  0  0  0  0  0  0  0  0
   -9.5433   18.2987   69.9938 O   0  0  0  0  0  0  0  0  0  0  0  0
   -9.1481   16.2876   65.9124 O   0  0  0  0  0  0  0  0  0  0  0  0
  -10.7304   14.0247   66.8209 C   0  0  0  0  0  0  0  0  0  0  0  0
  -11.1003   13.0895   66.2465 N   0  0  0  0  0  0  0  0  0  0  0  0
   -7.0275   18.2876   67.7219 C   0  0  0  0  0  0  0  0  0  0  0  0
  -10.0126   16.3511   72.1395 C   0  0  0  0  0  0  0  0  0  0  0  0
  -10.4883   16.2212   73.4591 C   0  0  0  0  0  0  0  0  0  0  0  0
  -11.8103   15.8022   73.6966 C   0  0  0  0  0  0  0  0  0  0  0  0
  -12.6594   15.5153   72.6113 C   0  0  0  0  0  0  0  0  0  0  0  0
  -12.1896   15.6561   71.2886 C   0  0  0  0  0  0  0  0  0  0  0  0
  -12.2484   15.6088   75.0145 O   0  0  0  0  0  0  0  0  0  0  0  0
   -6.5341   17.3731   68.3686 C   0  0  0  0  0  0  0  0  0  0  0  0
   -5.1307   17.1884   68.5569 C   0  0  0  0  0  0  0  0  0  0  0  0
   -6.2283   19.1886   66.9090 C   0  0  0  0  0  0  0  0  0  0  0  0
   -4.8273   19.0035   67.0389 C   0  0  0  0  0  0  0  0  0  0  0  0
   -4.3060   18.0196   67.7978 C   0  0  0  0  0  0  0  0  0  0  0  0
  -12.3371   16.7921   75.7211 C   0  0  0  0  0  0  0  0  0  0  0  0
  -13.9452   14.9685   72.7878 F   0  0  0  0  0  0  0  0  0  0  0  0
   -6.7606   20.1929   66.1160 O   0  0  0  0  0  0  0  0  0  0  0  0
   -4.5737   16.0784   69.4226 C   0  0  0  0  0  0  0  0  0  0  0  0
  1  2  2  0
  1  6  1  0
  1 11  1  0
  2  3  1  0
  3  4  1  0
  3  7  1  0
  4  9  2  0
  4  5  1  0
  5  6  1  0
  5  8  1  0
  6 10  2  0
  8 13  1  0
 11 12  3  0
 16 19  1  0
 19 25  1  0
 17 26  1  0
 22 27  1  0
 21 28  1  0
 13 20  2  0
 20 21  1  0
 21 24  2  0
 24 23  1  0
 23 22  2  0
 22 13  1  0
  7 18  2  0
 18 17  1  0
 17 16  2  0
 16 15  1  0
 15 14  2  0
 14  7  1  0
M  END

$$$$
No_477-gen_results_new/Mpro_initial_molecule_p3/2024-06-19-20-31-25/
     RDKit          3D

 28 30  0  0  0  0  0  0  0  0999 V2000
  -10.3383   15.1532   67.5971 C   0  0  0  0  0  0  0  0  0  0  0  0
  -10.7220   15.1619   68.8301 N   0  0  0  0  0  0  0  0  0  0  0  0
  -10.4044   16.2024   69.6852 N   0  0  0  0  0  0  0  0  0  0  0  0
   -9.7271   17.3221   69.2607 C   0  0  0  0  0  0  0  0  0  0  0  0
   -9.3095   17.3212   67.9557 N   0  0  0  0  0  0  0  0  0  0  0  0
   -9.5450   16.2958   67.0814 C   0  0  0  0  0  0  0  0  0  0  0  0
  -10.8644   16.0907   71.0374 C   0  0  0  0  0  0  0  0  0  0  0  0
   -8.5330   18.4792   67.4604 C   0  0  0  0  0  0  0  0  0  0  0  0
   -9.5433   18.2987   69.9938 O   0  0  0  0  0  0  0  0  0  0  0  0
   -9.1481   16.2876   65.9124 O   0  0  0  0  0  0  0  0  0  0  0  0
  -10.7304   14.0247   66.8209 C   0  0  0  0  0  0  0  0  0  0  0  0
  -11.1003   13.0895   66.2465 N   0  0  0  0  0  0  0  0  0  0  0  0
   -7.0275   18.2876   67.7219 C   0  0  0  0  0  0  0  0  0  0  0  0
  -10.0126   16.3511   72.1395 C   0  0  0  0  0  0  0  0  0  0  0  0
  -10.4883   16.2212   73.4591 C   0  0  0  0  0  0  0  0  0  0  0  0
  -11.8103   15.8022   73.6966 C   0  0  0  0  0  0  0  0  0  0  0  0
  -12.6594   15.5153   72.6113 C   0  0  0  0  0  0  0  0  0  0  0  0
  -12.1896   15.6561   71.2886 C   0  0  0  0  0  0  0  0  0  0  0  0
  -12.3486   15.5799   75.3255 Cl  0  0  0  0  0  0  0  0  0  0  0  0
   -6.4523   19.3079   67.8835 C   0  0  0  0  0  0  0  0  0  0  0  0
   -6.2032   19.5449   69.0280 C   0  0  0  0  0  0  0  0  0  0  0  0
   -5.6840   18.3857   69.7844 C   0  0  0  0  0  0  0  0  0  0  0  0
   -6.2430   17.0342   69.3917 C   0  0  0  0  0  0  0  0  0  0  0  0
   -7.0139   17.0490   68.3797 C   0  0  0  0  0  0  0  0  0  0  0  0
   -6.4747   20.4723   66.8815 C   0  0  0  0  0  0  0  0  0  0  0  0
   -7.3579   20.5388   66.0318 O   0  0  0  0  0  0  0  0  0  0  0  0
   -5.3729   21.1005   66.6861 O   0  0  0  0  0  0  0  0  0  0  0  0
   -5.0028   18.4182   71.0685 O   0  0  0  0  0  0  0  0  0  0  0  0
  1  2  2  0
  1  6  1  0
  1 11  1  0
  2  3  1  0
  3  4  1  0
  3  7  1  0
  4  9  2  0
  4  5  1  0
  5  6  1  0
  5  8  1  0
  6 10  2  0
  8 13  1  0
 11 12  3  0
 16 19  1  0
 20 25  1  0
 25 26  2  0
 25 27  1  0
 22 28  1  0
 13 20  2  0
 20 21  1  0
 21 22  2  0
 22 23  1  0
 23 24  2  0
 24 13  1  0
  7 18  2  0
 18 17  1  0
 17 16  2  0
 16 15  1  0
 15 14  2  0
 14  7  1  0
M  END

$$$$
No_478-gen_results_new/Mpro_initial_molecule_p3/2024-06-19-20-31-25/
     RDKit          3D

 28 30  0  0  0  0  0  0  0  0999 V2000
  -10.3383   15.1532   67.5971 C   0  0  0  0  0  0  0  0  0  0  0  0
  -10.7220   15.1619   68.8301 N   0  0  0  0  0  0  0  0  0  0  0  0
  -10.4044   16.2024   69.6852 N   0  0  0  0  0  0  0  0  0  0  0  0
   -9.7271   17.3221   69.2607 C   0  0  0  0  0  0  0  0  0  0  0  0
   -9.3095   17.3212   67.9557 N   0  0  0  0  0  0  0  0  0  0  0  0
   -9.5450   16.2958   67.0814 C   0  0  0  0  0  0  0  0  0  0  0  0
  -10.8644   16.0907   71.0374 C   0  0  0  0  0  0  0  0  0  0  0  0
   -8.5330   18.4792   67.4604 C   0  0  0  0  0  0  0  0  0  0  0  0
   -9.5433   18.2987   69.9938 O   0  0  0  0  0  0  0  0  0  0  0  0
   -9.1481   16.2876   65.9124 O   0  0  0  0  0  0  0  0  0  0  0  0
  -10.7304   14.0247   66.8209 C   0  0  0  0  0  0  0  0  0  0  0  0
  -11.1003   13.0895   66.2465 N   0  0  0  0  0  0  0  0  0  0  0  0
   -7.0275   18.2876   67.7219 C   0  0  0  0  0  0  0  0  0  0  0  0
  -10.0126   16.3511   72.1395 C   0  0  0  0  0  0  0  0  0  0  0  0
  -10.4883   16.2212   73.4591 C   0  0  0  0  0  0  0  0  0  0  0  0
  -11.8103   15.8022   73.6966 C   0  0  0  0  0  0  0  0  0  0  0  0
  -12.6594   15.5153   72.6113 C   0  0  0  0  0  0  0  0  0  0  0  0
  -12.1896   15.6561   71.2886 C   0  0  0  0  0  0  0  0  0  0  0  0
  -12.3486   15.5799   75.3255 Cl  0  0  0  0  0  0  0  0  0  0  0  0
   -6.4523   19.3079   67.8835 C   0  0  0  0  0  0  0  0  0  0  0  0
   -6.2543   20.3848   67.0158 C   0  0  0  0  0  0  0  0  0  0  0  0
   -6.0942   20.2863   65.9022 N   0  0  0  0  0  0  0  0  0  0  0  0
   -5.1203   19.5941   65.3097 C   0  0  0  0  0  0  0  0  0  0  0  0
   -4.2370   18.7079   65.9257 C   0  0  0  0  0  0  0  0  0  0  0  0
   -3.3321   17.9000   65.1550 C   0  0  0  0  0  0  0  0  0  0  0  0
   -3.3757   17.9933   63.7123 C   0  0  0  0  0  0  0  0  0  0  0  0
   -5.0535   19.6539   63.8244 C   0  0  0  0  0  0  0  0  0  0  0  0
   -4.1903   18.7742   63.0694 C   0  0  0  0  0  0  0  0  0  0  0  0
  1  2  2  0
  1  6  1  0
  1 11  1  0
  2  3  1  0
  3  4  1  0
  3  7  1  0
  4  9  2  0
  4  5  1  0
  5  6  1  0
  5  8  1  0
  6 10  2  0
  8 13  1  0
 11 12  3  0
 16 19  1  0
 13 20  1  0
 20 21  1  0
 21 22  1  0
 22 23  1  0
 23 24  2  0
 24 25  1  0
 25 26  2  0
 26 28  1  0
 28 27  2  0
 27 23  1  0
  7 18  2  0
 18 17  1  0
 17 16  2  0
 16 15  1  0
 15 14  2  0
 14  7  1  0
M  END

$$$$
No_479-gen_results_new/Mpro_initial_molecule_p3/2024-06-19-20-31-25/
     RDKit          3D

 28 30  0  0  0  0  0  0  0  0999 V2000
  -10.3383   15.1532   67.5971 C   0  0  0  0  0  0  0  0  0  0  0  0
  -10.7220   15.1619   68.8301 N   0  0  0  0  0  0  0  0  0  0  0  0
  -10.4044   16.2024   69.6852 N   0  0  0  0  0  0  0  0  0  0  0  0
   -9.7271   17.3221   69.2607 C   0  0  0  0  0  0  0  0  0  0  0  0
   -9.3095   17.3212   67.9557 N   0  0  0  0  0  0  0  0  0  0  0  0
   -9.5450   16.2958   67.0814 C   0  0  0  0  0  0  0  0  0  0  0  0
  -10.8644   16.0907   71.0374 C   0  0  0  0  0  0  0  0  0  0  0  0
   -8.5330   18.4792   67.4604 C   0  0  0  0  0  0  0  0  0  0  0  0
   -9.5433   18.2987   69.9938 O   0  0  0  0  0  0  0  0  0  0  0  0
   -9.1481   16.2876   65.9124 O   0  0  0  0  0  0  0  0  0  0  0  0
  -10.7304   14.0247   66.8209 C   0  0  0  0  0  0  0  0  0  0  0  0
  -11.1003   13.0895   66.2465 N   0  0  0  0  0  0  0  0  0  0  0  0
   -7.0275   18.2876   67.7219 C   0  0  0  0  0  0  0  0  0  0  0  0
  -10.0126   16.3511   72.1395 C   0  0  0  0  0  0  0  0  0  0  0  0
  -10.4883   16.2212   73.4591 C   0  0  0  0  0  0  0  0  0  0  0  0
  -11.8103   15.8022   73.6966 C   0  0  0  0  0  0  0  0  0  0  0  0
  -12.6594   15.5153   72.6113 C   0  0  0  0  0  0  0  0  0  0  0  0
  -12.1896   15.6561   71.2886 C   0  0  0  0  0  0  0  0  0  0  0  0
  -12.2768   15.6000   75.1088 C   0  0  0  0  0  0  0  0  0  0  0  0
   -6.5341   17.3729   68.3685 C   0  0  0  0  0  0  0  0  0  0  0  0
   -5.1308   17.1882   68.5568 C   0  0  0  0  0  0  0  0  0  0  0  0
   -6.2282   19.1886   66.9092 C   0  0  0  0  0  0  0  0  0  0  0  0
   -4.9265   18.9794   67.1273 C   0  0  0  0  0  0  0  0  0  0  0  0
   -4.3254   18.0459   67.8610 C   0  0  0  0  0  0  0  0  0  0  0  0
  -12.3528   14.5927   75.5997 O   0  0  0  0  0  0  0  0  0  0  0  0
  -12.2293   16.6685   75.8377 O   0  0  0  0  0  0  0  0  0  0  0  0
  -13.9463   15.0172   72.8219 F   0  0  0  0  0  0  0  0  0  0  0  0
   -6.7727   20.1854   66.1897 F   0  0  0  0  0  0  0  0  0  0  0  0
  1  2  2  0
  1  6  1  0
  1 11  1  0
  2  3  1  0
  3  4  1  0
  3  7  1  0
  4  9  2  0
  4  5  1  0
  5  6  1  0
  5  8  1  0
  6 10  2  0
  8 13  1  0
 11 12  3  0
 16 19  1  0
 19 25  2  0
 19 26  1  0
 17 27  1  0
 22 28  1  0
 13 20  2  0
 20 21  1  0
 21 24  2  0
 24 23  1  0
 23 22  2  0
 22 13  1  0
  7 18  2  0
 18 17  1  0
 17 16  2  0
 16 15  1  0
 15 14  2  0
 14  7  1  0
M  END

$$$$
No_480-gen_results_new/Mpro_initial_molecule_p3/2024-06-19-20-31-25/
     RDKit          3D

 28 30  0  0  0  0  0  0  0  0999 V2000
  -10.3383   15.1532   67.5971 C   0  0  0  0  0  0  0  0  0  0  0  0
  -10.7220   15.1619   68.8301 N   0  0  0  0  0  0  0  0  0  0  0  0
  -10.4044   16.2024   69.6852 N   0  0  0  0  0  0  0  0  0  0  0  0
   -9.7271   17.3221   69.2607 C   0  0  0  0  0  0  0  0  0  0  0  0
   -9.3095   17.3212   67.9557 N   0  0  0  0  0  0  0  0  0  0  0  0
   -9.5450   16.2958   67.0814 C   0  0  0  0  0  0  0  0  0  0  0  0
  -10.8644   16.0907   71.0374 C   0  0  0  0  0  0  0  0  0  0  0  0
   -8.5330   18.4792   67.4604 C   0  0  0  0  0  0  0  0  0  0  0  0
   -9.5433   18.2987   69.9938 O   0  0  0  0  0  0  0  0  0  0  0  0
   -9.1481   16.2876   65.9124 O   0  0  0  0  0  0  0  0  0  0  0  0
  -10.7304   14.0247   66.8209 C   0  0  0  0  0  0  0  0  0  0  0  0
  -11.1003   13.0895   66.2465 N   0  0  0  0  0  0  0  0  0  0  0  0
   -7.0275   18.2876   67.7219 C   0  0  0  0  0  0  0  0  0  0  0  0
  -10.0126   16.3511   72.1395 C   0  0  0  0  0  0  0  0  0  0  0  0
  -10.4883   16.2212   73.4591 C   0  0  0  0  0  0  0  0  0  0  0  0
  -11.8103   15.8022   73.6966 C   0  0  0  0  0  0  0  0  0  0  0  0
  -12.6594   15.5153   72.6113 C   0  0  0  0  0  0  0  0  0  0  0  0
  -12.1896   15.6561   71.2886 C   0  0  0  0  0  0  0  0  0  0  0  0
  -12.2768   15.6000   75.1088 C   0  0  0  0  0  0  0  0  0  0  0  0
   -6.4522   19.3092   67.8826 C   0  0  0  0  0  0  0  0  0  0  0  0
  -12.3537   14.5923   75.5994 O   0  0  0  0  0  0  0  0  0  0  0  0
  -12.4205   16.7483   75.8013 N   0  0  0  0  0  0  0  0  0  0  0  0
   -4.9616   19.3660   67.8940 C   0  0  0  0  0  0  0  0  0  0  0  0
   -4.3401   18.1332   67.6833 C   0  0  0  0  0  0  0  0  0  0  0  0
   -2.9665   18.0426   67.6881 C   0  0  0  0  0  0  0  0  0  0  0  0
   -2.2647   19.2692   67.9875 N   0  0  0  0  0  0  0  0  0  0  0  0
   -4.1983   20.4894   68.1215 C   0  0  0  0  0  0  0  0  0  0  0  0
   -2.8199   20.3807   68.1333 C   0  0  0  0  0  0  0  0  0  0  0  0
  1  2  2  0
  1  6  1  0
  1 11  1  0
  2  3  1  0
  3  4  1  0
  3  7  1  0
  4  9  2  0
  4  5  1  0
  5  6  1  0
  5  8  1  0
  6 10  2  0
  8 13  1  0
 11 12  3  0
 16 19  1  0
 13 20  1  0
 19 21  2  0
 19 22  1  0
 20 23  1  0
 23 24  2  0
 24 25  1  0
 25 26  2  0
 26 28  1  0
 28 27  2  0
 27 23  1  0
  7 18  2  0
 18 17  1  0
 17 16  2  0
 16 15  1  0
 15 14  2  0
 14  7  1  0
M  END

$$$$
No_481-gen_results_new/Mpro_initial_molecule_p3/2024-06-19-20-31-25/
     RDKit          3D

 28 30  0  0  0  0  0  0  0  0999 V2000
  -10.3383   15.1532   67.5971 C   0  0  0  0  0  0  0  0  0  0  0  0
  -10.7220   15.1619   68.8301 N   0  0  0  0  0  0  0  0  0  0  0  0
  -10.4044   16.2024   69.6852 N   0  0  0  0  0  0  0  0  0  0  0  0
   -9.7271   17.3221   69.2607 C   0  0  0  0  0  0  0  0  0  0  0  0
   -9.3095   17.3212   67.9557 N   0  0  0  0  0  0  0  0  0  0  0  0
   -9.5450   16.2958   67.0814 C   0  0  0  0  0  0  0  0  0  0  0  0
  -10.8644   16.0907   71.0374 C   0  0  0  0  0  0  0  0  0  0  0  0
   -8.5330   18.4792   67.4604 C   0  0  0  0  0  0  0  0  0  0  0  0
   -9.5433   18.2987   69.9938 O   0  0  0  0  0  0  0  0  0  0  0  0
   -9.1481   16.2876   65.9124 O   0  0  0  0  0  0  0  0  0  0  0  0
  -10.7304   14.0247   66.8209 C   0  0  0  0  0  0  0  0  0  0  0  0
  -11.1003   13.0895   66.2465 N   0  0  0  0  0  0  0  0  0  0  0  0
   -7.0275   18.2876   67.7219 C   0  0  0  0  0  0  0  0  0  0  0  0
  -10.0126   16.3511   72.1395 C   0  0  0  0  0  0  0  0  0  0  0  0
  -10.4883   16.2212   73.4591 C   0  0  0  0  0  0  0  0  0  0  0  0
  -11.8103   15.8022   73.6966 C   0  0  0  0  0  0  0  0  0  0  0  0
  -12.6594   15.5153   72.6113 C   0  0  0  0  0  0  0  0  0  0  0  0
  -12.1896   15.6561   71.2886 C   0  0  0  0  0  0  0  0  0  0  0  0
  -12.2484   15.6088   75.0145 O   0  0  0  0  0  0  0  0  0  0  0  0
   -6.5341   17.3731   68.3686 C   0  0  0  0  0  0  0  0  0  0  0  0
   -5.2023   17.6243   68.8089 C   0  0  0  0  0  0  0  0  0  0  0  0
   -4.5931   16.7462   69.7095 C   0  0  0  0  0  0  0  0  0  0  0  0
   -5.2661   15.5957   70.2607 C   0  0  0  0  0  0  0  0  0  0  0  0
   -6.6637   15.3979   69.9339 C   0  0  0  0  0  0  0  0  0  0  0  0
   -7.2416   16.2898   68.9456 C   0  0  0  0  0  0  0  0  0  0  0  0
   -8.0117   15.7313   68.1609 O   0  0  0  0  0  0  0  0  0  0  0  0
   -8.3696   14.4035   68.5191 C   0  0  0  0  0  0  0  0  0  0  0  0
  -12.3331   16.7951   75.7187 C   0  0  0  0  0  0  0  0  0  0  0  0
  1  2  2  0
  1  6  1  0
  1 11  1  0
  2  3  1  0
  3  4  1  0
  3  7  1  0
  4  9  2  0
  4  5  1  0
  5  6  1  0
  5  8  1  0
  6 10  2  0
  8 13  1  0
 11 12  3  0
 16 19  1  0
 13 20  1  0
 25 26  1  0
 26 27  1  0
 19 28  1  0
 20 21  2  0
 21 22  1  0
 22 23  2  0
 23 24  1  0
 24 25  2  0
 25 20  1  0
  7 18  2  0
 18 17  1  0
 17 16  2  0
 16 15  1  0
 15 14  2  0
 14  7  1  0
M  END

$$$$
No_482-gen_results_new/Mpro_initial_molecule_p3/2024-06-19-20-31-25/
     RDKit          3D

 28 30  0  0  0  0  0  0  0  0999 V2000
  -10.3383   15.1532   67.5971 C   0  0  0  0  0  0  0  0  0  0  0  0
  -10.7220   15.1619   68.8301 N   0  0  0  0  0  0  0  0  0  0  0  0
  -10.4044   16.2024   69.6852 N   0  0  0  0  0  0  0  0  0  0  0  0
   -9.7271   17.3221   69.2607 C   0  0  0  0  0  0  0  0  0  0  0  0
   -9.3095   17.3212   67.9557 N   0  0  0  0  0  0  0  0  0  0  0  0
   -9.5450   16.2958   67.0814 C   0  0  0  0  0  0  0  0  0  0  0  0
  -10.8644   16.0907   71.0374 C   0  0  0  0  0  0  0  0  0  0  0  0
   -8.5330   18.4792   67.4604 C   0  0  0  0  0  0  0  0  0  0  0  0
   -9.5433   18.2987   69.9938 O   0  0  0  0  0  0  0  0  0  0  0  0
   -9.1481   16.2876   65.9124 O   0  0  0  0  0  0  0  0  0  0  0  0
  -10.7304   14.0247   66.8209 C   0  0  0  0  0  0  0  0  0  0  0  0
  -11.1003   13.0895   66.2465 N   0  0  0  0  0  0  0  0  0  0  0  0
   -7.0275   18.2876   67.7219 C   0  0  0  0  0  0  0  0  0  0  0  0
  -10.0126   16.3511   72.1395 C   0  0  0  0  0  0  0  0  0  0  0  0
  -10.4883   16.2212   73.4591 C   0  0  0  0  0  0  0  0  0  0  0  0
  -11.8103   15.8022   73.6966 C   0  0  0  0  0  0  0  0  0  0  0  0
  -12.6594   15.5153   72.6113 C   0  0  0  0  0  0  0  0  0  0  0  0
  -12.1896   15.6561   71.2886 C   0  0  0  0  0  0  0  0  0  0  0  0
  -12.2768   15.6000   75.1088 C   0  0  0  0  0  0  0  0  0  0  0  0
   -6.5341   17.3729   68.3685 C   0  0  0  0  0  0  0  0  0  0  0  0
   -5.1308   17.1882   68.5568 C   0  0  0  0  0  0  0  0  0  0  0  0
   -6.2282   19.1886   66.9092 C   0  0  0  0  0  0  0  0  0  0  0  0
   -4.8273   19.0035   67.0391 C   0  0  0  0  0  0  0  0  0  0  0  0
   -4.3060   18.0195   67.7979 C   0  0  0  0  0  0  0  0  0  0  0  0
  -11.9566   16.3202   75.9318 O   0  0  0  0  0  0  0  0  0  0  0  0
  -12.7887   14.4773   75.3653 O   0  0  0  0  0  0  0  0  0  0  0  0
   -6.7604   20.1930   66.1162 O   0  0  0  0  0  0  0  0  0  0  0  0
   -4.5739   16.0782   69.4223 C   0  0  0  0  0  0  0  0  0  0  0  0
  1  2  2  0
  1  6  1  0
  1 11  1  0
  2  3  1  0
  3  4  1  0
  3  7  1  0
  4  9  2  0
  4  5  1  0
  5  6  1  0
  5  8  1  0
  6 10  2  0
  8 13  1  0
 11 12  3  0
 16 19  1  0
 19 25  2  0
 19 26  1  0
 22 27  1  0
 21 28  1  0
 13 20  2  0
 20 21  1  0
 21 24  2  0
 24 23  1  0
 23 22  2  0
 22 13  1  0
  7 18  2  0
 18 17  1  0
 17 16  2  0
 16 15  1  0
 15 14  2  0
 14  7  1  0
M  END

$$$$
No_483-gen_results_new/Mpro_initial_molecule_p3/2024-06-19-20-31-25/
     RDKit          3D

 28 30  0  0  0  0  0  0  0  0999 V2000
  -10.3383   15.1532   67.5971 C   0  0  0  0  0  0  0  0  0  0  0  0
  -10.7220   15.1619   68.8301 N   0  0  0  0  0  0  0  0  0  0  0  0
  -10.4044   16.2024   69.6852 N   0  0  0  0  0  0  0  0  0  0  0  0
   -9.7271   17.3221   69.2607 C   0  0  0  0  0  0  0  0  0  0  0  0
   -9.3095   17.3212   67.9557 N   0  0  0  0  0  0  0  0  0  0  0  0
   -9.5450   16.2958   67.0814 C   0  0  0  0  0  0  0  0  0  0  0  0
  -10.8644   16.0907   71.0374 C   0  0  0  0  0  0  0  0  0  0  0  0
   -8.5330   18.4792   67.4604 C   0  0  0  0  0  0  0  0  0  0  0  0
   -9.5433   18.2987   69.9938 O   0  0  0  0  0  0  0  0  0  0  0  0
   -9.1481   16.2876   65.9124 O   0  0  0  0  0  0  0  0  0  0  0  0
  -10.7304   14.0247   66.8209 C   0  0  0  0  0  0  0  0  0  0  0  0
  -11.1003   13.0895   66.2465 N   0  0  0  0  0  0  0  0  0  0  0  0
   -7.0275   18.2876   67.7219 C   0  0  0  0  0  0  0  0  0  0  0  0
  -10.0126   16.3511   72.1395 C   0  0  0  0  0  0  0  0  0  0  0  0
  -10.4883   16.2212   73.4591 C   0  0  0  0  0  0  0  0  0  0  0  0
  -11.8103   15.8022   73.6966 C   0  0  0  0  0  0  0  0  0  0  0  0
  -12.6594   15.5153   72.6113 C   0  0  0  0  0  0  0  0  0  0  0  0
  -12.1896   15.6561   71.2886 C   0  0  0  0  0  0  0  0  0  0  0  0
  -12.3486   15.5799   75.3255 Cl  0  0  0  0  0  0  0  0  0  0  0  0
   -6.4523   19.3079   67.8835 C   0  0  0  0  0  0  0  0  0  0  0  0
   -4.9276   19.3344   68.2144 C   0  0  0  0  0  0  0  0  0  0  0  0
   -4.3480   18.0902   68.0015 C   0  0  0  0  0  0  0  0  0  0  0  0
   -5.0944   16.9337   67.6810 C   0  0  0  0  0  0  0  0  0  0  0  0
   -6.5498   17.0237   67.5636 C   0  0  0  0  0  0  0  0  0  0  0  0
   -4.2338   20.4190   68.3839 O   0  0  0  0  0  0  0  0  0  0  0  0
   -3.4157   20.2657   69.4626 C   0  0  0  0  0  0  0  0  0  0  0  0
   -3.9324   20.0094   70.7192 C   0  0  0  0  0  0  0  0  0  0  0  0
   -5.0866   20.4230   71.0904 O   0  0  0  0  0  0  0  0  0  0  0  0
  1  2  2  0
  1  6  1  0
  1 11  1  0
  2  3  1  0
  3  4  1  0
  3  7  1  0
  4  9  2  0
  4  5  1  0
  5  6  1  0
  5  8  1  0
  6 10  2  0
  8 13  1  0
 11 12  3  0
 16 19  1  0
 21 25  1  0
 25 26  1  0
 26 27  1  0
 27 28  1  0
 13 20  2  0
 20 21  1  0
 21 22  2  0
 22 23  1  0
 23 24  2  0
 24 13  1  0
  7 18  2  0
 18 17  1  0
 17 16  2  0
 16 15  1  0
 15 14  2  0
 14  7  1  0
M  END

$$$$
No_484-gen_results_new/Mpro_initial_molecule_p3/2024-06-19-20-31-25/
     RDKit          3D

 27 29  0  0  0  0  0  0  0  0999 V2000
  -10.3383   15.1532   67.5971 C   0  0  0  0  0  0  0  0  0  0  0  0
  -10.7220   15.1619   68.8301 N   0  0  0  0  0  0  0  0  0  0  0  0
  -10.4044   16.2024   69.6852 N   0  0  0  0  0  0  0  0  0  0  0  0
   -9.7271   17.3221   69.2607 C   0  0  0  0  0  0  0  0  0  0  0  0
   -9.3095   17.3212   67.9557 N   0  0  0  0  0  0  0  0  0  0  0  0
   -9.5450   16.2958   67.0814 C   0  0  0  0  0  0  0  0  0  0  0  0
  -10.8644   16.0907   71.0374 C   0  0  0  0  0  0  0  0  0  0  0  0
   -8.5330   18.4792   67.4604 C   0  0  0  0  0  0  0  0  0  0  0  0
   -9.5433   18.2987   69.9938 O   0  0  0  0  0  0  0  0  0  0  0  0
   -9.1481   16.2876   65.9124 O   0  0  0  0  0  0  0  0  0  0  0  0
  -10.7304   14.0247   66.8209 C   0  0  0  0  0  0  0  0  0  0  0  0
  -11.1003   13.0895   66.2465 N   0  0  0  0  0  0  0  0  0  0  0  0
   -7.0275   18.2876   67.7219 C   0  0  0  0  0  0  0  0  0  0  0  0
  -10.0126   16.3511   72.1395 C   0  0  0  0  0  0  0  0  0  0  0  0
  -10.4883   16.2212   73.4591 C   0  0  0  0  0  0  0  0  0  0  0  0
  -11.8103   15.8022   73.6966 C   0  0  0  0  0  0  0  0  0  0  0  0
  -12.6594   15.5153   72.6113 C   0  0  0  0  0  0  0  0  0  0  0  0
  -12.1896   15.6561   71.2886 C   0  0  0  0  0  0  0  0  0  0  0  0
  -12.3486   15.5799   75.3255 Cl  0  0  0  0  0  0  0  0  0  0  0  0
   -6.3058   19.3592   66.9157 C   0  0  0  0  0  0  0  0  0  0  0  0
   -4.9894   19.4432   66.9687 C   0  0  0  0  0  0  0  0  0  0  0  0
   -4.2885   20.4306   66.2890 C   0  0  0  0  0  0  0  0  0  0  0  0
   -3.0033   20.4267   66.2739 N   0  0  0  0  0  0  0  0  0  0  0  0
   -4.9848   21.1440   65.3876 C   0  0  0  0  0  0  0  0  0  0  0  0
   -6.4044   21.0729   65.2511 C   0  0  0  0  0  0  0  0  0  0  0  0
   -7.0539   20.1032   66.0357 C   0  0  0  0  0  0  0  0  0  0  0  0
   -2.3385   21.4340   65.9684 O   0  0  0  0  0  0  0  0  0  0  0  0
  1  2  2  0
  1  6  1  0
  1 11  1  0
  2  3  1  0
  3  4  1  0
  3  7  1  0
  4  9  2  0
  4  5  1  0
  5  6  1  0
  5  8  1  0
  6 10  2  0
  8 13  1  0
 11 12  3  0
 16 19  1  0
 13 20  1  0
 23 27  1  0
 23 22  1  0
 20 21  2  0
 21 22  1  0
 22 24  2  0
 24 25  1  0
 25 26  2  0
 26 20  1  0
  7 18  2  0
 18 17  1  0
 17 16  2  0
 16 15  1  0
 15 14  2  0
 14  7  1  0
M  END

$$$$
No_485-gen_results_new/Mpro_initial_molecule_p3/2024-06-19-20-31-25/
     RDKit          3D

 25 27  0  0  0  0  0  0  0  0999 V2000
  -10.3383   15.1532   67.5971 C   0  0  0  0  0  0  0  0  0  0  0  0
  -10.7220   15.1619   68.8301 N   0  0  0  0  0  0  0  0  0  0  0  0
  -10.4044   16.2024   69.6852 N   0  0  0  0  0  0  0  0  0  0  0  0
   -9.7271   17.3221   69.2607 C   0  0  0  0  0  0  0  0  0  0  0  0
   -9.3095   17.3212   67.9557 N   0  0  0  0  0  0  0  0  0  0  0  0
   -9.5450   16.2958   67.0814 C   0  0  0  0  0  0  0  0  0  0  0  0
  -10.8644   16.0907   71.0374 C   0  0  0  0  0  0  0  0  0  0  0  0
   -8.5330   18.4792   67.4604 C   0  0  0  0  0  0  0  0  0  0  0  0
   -9.5433   18.2987   69.9938 O   0  0  0  0  0  0  0  0  0  0  0  0
   -9.1481   16.2876   65.9124 O   0  0  0  0  0  0  0  0  0  0  0  0
  -10.7304   14.0247   66.8209 C   0  0  0  0  0  0  0  0  0  0  0  0
  -11.1003   13.0895   66.2465 N   0  0  0  0  0  0  0  0  0  0  0  0
   -7.0275   18.2876   67.7219 C   0  0  0  0  0  0  0  0  0  0  0  0
  -10.0126   16.3511   72.1395 C   0  0  0  0  0  0  0  0  0  0  0  0
  -10.4883   16.2212   73.4591 C   0  0  0  0  0  0  0  0  0  0  0  0
  -11.8103   15.8022   73.6966 C   0  0  0  0  0  0  0  0  0  0  0  0
  -12.6594   15.5153   72.6113 C   0  0  0  0  0  0  0  0  0  0  0  0
  -12.1896   15.6561   71.2886 C   0  0  0  0  0  0  0  0  0  0  0  0
  -12.2484   15.6088   75.0145 O   0  0  0  0  0  0  0  0  0  0  0  0
   -6.5341   17.3731   68.3686 C   0  0  0  0  0  0  0  0  0  0  0  0
   -5.1307   17.1884   68.5569 C   0  0  0  0  0  0  0  0  0  0  0  0
   -6.2283   19.1886   66.9090 C   0  0  0  0  0  0  0  0  0  0  0  0
   -6.8373   20.4422   65.9475 Cl  0  0  0  0  0  0  0  0  0  0  0  0
   -4.2995   18.0690   67.8356 C   0  0  0  0  0  0  0  0  0  0  0  0
   -4.8250   19.0598   67.0588 C   0  0  0  0  0  0  0  0  0  0  0  0
  1  2  2  0
  1  6  1  0
  1 11  1  0
  2  3  1  0
  3  4  1  0
  3  7  1  0
  4  9  2  0
  4  5  1  0
  5  6  1  0
  5  8  1  0
  6 10  2  0
  8 13  1  0
 11 12  3  0
 16 19  1  0
 22 23  1  0
  7 18  2  0
 18 17  1  0
 17 16  2  0
 16 15  1  0
 15 14  2  0
 14  7  1  0
 13 20  2  0
 20 21  1  0
 21 24  2  0
 24 25  1  0
 25 22  2  0
 22 13  1  0
M  END

$$$$
No_486-gen_results_new/Mpro_initial_molecule_p3/2024-06-19-20-31-25/
     RDKit          3D

 28 30  0  0  0  0  0  0  0  0999 V2000
  -10.3383   15.1532   67.5971 C   0  0  0  0  0  0  0  0  0  0  0  0
  -10.7220   15.1619   68.8301 N   0  0  0  0  0  0  0  0  0  0  0  0
  -10.4044   16.2024   69.6852 N   0  0  0  0  0  0  0  0  0  0  0  0
   -9.7271   17.3221   69.2607 C   0  0  0  0  0  0  0  0  0  0  0  0
   -9.3095   17.3212   67.9557 N   0  0  0  0  0  0  0  0  0  0  0  0
   -9.5450   16.2958   67.0814 C   0  0  0  0  0  0  0  0  0  0  0  0
  -10.8644   16.0907   71.0374 C   0  0  0  0  0  0  0  0  0  0  0  0
   -8.5330   18.4792   67.4604 C   0  0  0  0  0  0  0  0  0  0  0  0
   -9.5433   18.2987   69.9938 O   0  0  0  0  0  0  0  0  0  0  0  0
   -9.1481   16.2876   65.9124 O   0  0  0  0  0  0  0  0  0  0  0  0
  -10.7304   14.0247   66.8209 C   0  0  0  0  0  0  0  0  0  0  0  0
  -11.1003   13.0895   66.2465 N   0  0  0  0  0  0  0  0  0  0  0  0
   -7.0275   18.2876   67.7219 C   0  0  0  0  0  0  0  0  0  0  0  0
  -10.0126   16.3511   72.1395 C   0  0  0  0  0  0  0  0  0  0  0  0
  -10.4883   16.2212   73.4591 C   0  0  0  0  0  0  0  0  0  0  0  0
  -11.8103   15.8022   73.6966 C   0  0  0  0  0  0  0  0  0  0  0  0
  -12.6594   15.5153   72.6113 C   0  0  0  0  0  0  0  0  0  0  0  0
  -12.1896   15.6561   71.2886 C   0  0  0  0  0  0  0  0  0  0  0  0
  -12.3282   15.6698   75.1036 C   0  0  0  0  0  0  0  0  0  0  0  0
   -6.3058   19.3590   66.9155 C   0  0  0  0  0  0  0  0  0  0  0  0
   -6.9573   20.4797   66.4325 C   0  0  0  0  0  0  0  0  0  0  0  0
   -8.3625   20.5498   66.3745 C   0  0  0  0  0  0  0  0  0  0  0  0
   -9.1833   19.4925   66.8326 C   0  0  0  0  0  0  0  0  0  0  0  0
  -11.9421   16.6054   75.8495 N   0  0  0  0  0  0  0  0  0  0  0  0
   -6.0992   21.4743   65.9922 O   0  0  0  0  0  0  0  0  0  0  0  0
   -4.9520   19.3083   67.1798 O   0  0  0  0  0  0  0  0  0  0  0  0
   -4.2881   18.2387   67.5940 C   0  0  0  0  0  0  0  0  0  0  0  0
   -2.8422   18.4138   67.2200 C   0  0  0  0  0  0  0  0  0  0  0  0
  1  2  2  0
  1  6  1  0
  1 11  1  0
  2  3  1  0
  3  4  1  0
  3  7  1  0
  4  9  2  0
  4  5  1  0
  5  6  1  0
  5  8  1  0
  6 10  2  0
 11 12  3  0
 16 19  1  0
 19 24  1  0
 21 25  1  0
 20 26  1  0
 26 27  1  0
 27 28  1  0
  8 13  2  0
 13 20  1  0
 20 21  2  0
 21 22  1  0
 22 23  2  0
 23  8  1  0
  7 18  2  0
 18 17  1  0
 17 16  2  0
 16 15  1  0
 15 14  2  0
 14  7  1  0
M  END

$$$$
No_487-gen_results_new/Mpro_initial_molecule_p3/2024-06-19-20-31-25/
     RDKit          3D

 26 28  0  0  0  0  0  0  0  0999 V2000
  -10.3383   15.1532   67.5971 C   0  0  0  0  0  0  0  0  0  0  0  0
  -10.7220   15.1619   68.8301 N   0  0  0  0  0  0  0  0  0  0  0  0
  -10.4044   16.2024   69.6852 N   0  0  0  0  0  0  0  0  0  0  0  0
   -9.7271   17.3221   69.2607 C   0  0  0  0  0  0  0  0  0  0  0  0
   -9.3095   17.3212   67.9557 N   0  0  0  0  0  0  0  0  0  0  0  0
   -9.5450   16.2958   67.0814 C   0  0  0  0  0  0  0  0  0  0  0  0
  -10.8644   16.0907   71.0374 C   0  0  0  0  0  0  0  0  0  0  0  0
   -8.5330   18.4792   67.4604 C   0  0  0  0  0  0  0  0  0  0  0  0
   -9.5433   18.2987   69.9938 O   0  0  0  0  0  0  0  0  0  0  0  0
   -9.1481   16.2876   65.9124 O   0  0  0  0  0  0  0  0  0  0  0  0
  -10.7304   14.0247   66.8209 C   0  0  0  0  0  0  0  0  0  0  0  0
  -11.1003   13.0895   66.2465 N   0  0  0  0  0  0  0  0  0  0  0  0
   -7.0275   18.2876   67.7219 C   0  0  0  0  0  0  0  0  0  0  0  0
  -10.0126   16.3511   72.1395 C   0  0  0  0  0  0  0  0  0  0  0  0
  -10.4883   16.2212   73.4591 C   0  0  0  0  0  0  0  0  0  0  0  0
  -11.8103   15.8022   73.6966 C   0  0  0  0  0  0  0  0  0  0  0  0
  -12.6594   15.5153   72.6113 C   0  0  0  0  0  0  0  0  0  0  0  0
  -12.1896   15.6561   71.2886 C   0  0  0  0  0  0  0  0  0  0  0  0
  -12.3486   15.5799   75.3255 Cl  0  0  0  0  0  0  0  0  0  0  0  0
   -6.5344   17.3734   68.3696 C   0  0  0  0  0  0  0  0  0  0  0  0
   -5.1310   17.1884   68.5570 C   0  0  0  0  0  0  0  0  0  0  0  0
   -6.3132   19.4044   67.2937 C   0  0  0  0  0  0  0  0  0  0  0  0
   -4.9038   19.2886   67.4758 C   0  0  0  0  0  0  0  0  0  0  0  0
   -4.3512   18.1958   68.1015 C   0  0  0  0  0  0  0  0  0  0  0  0
   -4.0545   20.4399   67.0433 C   0  0  0  0  0  0  0  0  0  0  0  0
   -4.4024   21.4436   66.4664 C   0  0  0  0  0  0  0  0  0  0  0  0
  1  2  2  0
  1  6  1  0
  1 11  1  0
  2  3  1  0
  3  4  1  0
  3  7  1  0
  4  9  2  0
  4  5  1  0
  5  6  1  0
  5  8  1  0
  6 10  2  0
  8 13  1  0
 11 12  3  0
 16 19  1  0
 23 25  1  0
 25 26  2  0
 13 20  2  0
 20 21  1  0
 21 24  2  0
 24 23  1  0
 23 22  2  0
 22 13  1  0
  7 18  2  0
 18 17  1  0
 17 16  2  0
 16 15  1  0
 15 14  2  0
 14  7  1  0
M  END

$$$$
No_488-gen_results_new/Mpro_initial_molecule_p3/2024-06-19-20-31-25/
     RDKit          3D

 28 30  0  0  0  0  0  0  0  0999 V2000
  -10.3383   15.1532   67.5971 C   0  0  0  0  0  0  0  0  0  0  0  0
  -10.7220   15.1619   68.8301 N   0  0  0  0  0  0  0  0  0  0  0  0
  -10.4044   16.2024   69.6852 N   0  0  0  0  0  0  0  0  0  0  0  0
   -9.7271   17.3221   69.2607 C   0  0  0  0  0  0  0  0  0  0  0  0
   -9.3095   17.3212   67.9557 N   0  0  0  0  0  0  0  0  0  0  0  0
   -9.5450   16.2958   67.0814 C   0  0  0  0  0  0  0  0  0  0  0  0
  -10.8644   16.0907   71.0374 C   0  0  0  0  0  0  0  0  0  0  0  0
   -8.5330   18.4792   67.4604 C   0  0  0  0  0  0  0  0  0  0  0  0
   -9.5433   18.2987   69.9938 O   0  0  0  0  0  0  0  0  0  0  0  0
   -9.1481   16.2876   65.9124 O   0  0  0  0  0  0  0  0  0  0  0  0
  -10.7304   14.0247   66.8209 C   0  0  0  0  0  0  0  0  0  0  0  0
  -11.1003   13.0895   66.2465 N   0  0  0  0  0  0  0  0  0  0  0  0
   -7.0275   18.2876   67.7219 C   0  0  0  0  0  0  0  0  0  0  0  0
  -10.0126   16.3511   72.1395 C   0  0  0  0  0  0  0  0  0  0  0  0
  -10.4883   16.2212   73.4591 C   0  0  0  0  0  0  0  0  0  0  0  0
  -11.8103   15.8022   73.6966 C   0  0  0  0  0  0  0  0  0  0  0  0
  -12.6594   15.5153   72.6113 C   0  0  0  0  0  0  0  0  0  0  0  0
  -12.1896   15.6561   71.2886 C   0  0  0  0  0  0  0  0  0  0  0  0
  -12.2484   15.6088   75.0145 O   0  0  0  0  0  0  0  0  0  0  0  0
   -6.5341   17.3731   68.3686 C   0  0  0  0  0  0  0  0  0  0  0  0
   -5.1247   17.1828   68.5818 C   0  0  0  0  0  0  0  0  0  0  0  0
   -4.2977   17.9486   67.7743 C   0  0  0  0  0  0  0  0  0  0  0  0
   -4.8006   18.9008   66.9635 C   0  0  0  0  0  0  0  0  0  0  0  0
   -6.2037   19.0663   66.8225 C   0  0  0  0  0  0  0  0  0  0  0  0
  -11.8769   16.5248   75.9058 C   0  0  0  0  0  0  0  0  0  0  0  0
  -13.9763   14.9530   72.7880 O   0  0  0  0  0  0  0  0  0  0  0  0
   -6.7528   20.0017   65.9539 O   0  0  0  0  0  0  0  0  0  0  0  0
   -5.8945   20.5624   64.9994 C   0  0  0  0  0  0  0  0  0  0  0  0
  1  2  2  0
  1  6  1  0
  1 11  1  0
  2  3  1  0
  3  4  1  0
  3  7  1  0
  4  9  2  0
  4  5  1  0
  5  6  1  0
  5  8  1  0
  6 10  2  0
  8 13  1  0
 11 12  3  0
 16 19  1  0
 19 25  1  0
 17 26  1  0
 24 27  1  0
 27 28  1  0
 13 20  2  0
 20 21  1  0
 21 22  2  0
 22 23  1  0
 23 24  2  0
 24 13  1  0
  7 18  2  0
 18 17  1  0
 17 16  2  0
 16 15  1  0
 15 14  2  0
 14  7  1  0
M  END

$$$$
No_489-gen_results_new/Mpro_initial_molecule_p3/2024-06-19-20-31-25/
     RDKit          3D

 28 30  0  0  0  0  0  0  0  0999 V2000
  -10.3383   15.1532   67.5971 C   0  0  0  0  0  0  0  0  0  0  0  0
  -10.7220   15.1619   68.8301 N   0  0  0  0  0  0  0  0  0  0  0  0
  -10.4044   16.2024   69.6852 N   0  0  0  0  0  0  0  0  0  0  0  0
   -9.7271   17.3221   69.2607 C   0  0  0  0  0  0  0  0  0  0  0  0
   -9.3095   17.3212   67.9557 N   0  0  0  0  0  0  0  0  0  0  0  0
   -9.5450   16.2958   67.0814 C   0  0  0  0  0  0  0  0  0  0  0  0
  -10.8644   16.0907   71.0374 C   0  0  0  0  0  0  0  0  0  0  0  0
   -8.5330   18.4792   67.4604 C   0  0  0  0  0  0  0  0  0  0  0  0
   -9.5433   18.2987   69.9938 O   0  0  0  0  0  0  0  0  0  0  0  0
   -9.1481   16.2876   65.9124 O   0  0  0  0  0  0  0  0  0  0  0  0
  -10.7304   14.0247   66.8209 C   0  0  0  0  0  0  0  0  0  0  0  0
  -11.1003   13.0895   66.2465 N   0  0  0  0  0  0  0  0  0  0  0  0
   -7.0275   18.2876   67.7219 C   0  0  0  0  0  0  0  0  0  0  0  0
  -10.0126   16.3511   72.1395 C   0  0  0  0  0  0  0  0  0  0  0  0
  -10.4883   16.2212   73.4591 C   0  0  0  0  0  0  0  0  0  0  0  0
  -11.8103   15.8022   73.6966 C   0  0  0  0  0  0  0  0  0  0  0  0
  -12.6594   15.5153   72.6113 C   0  0  0  0  0  0  0  0  0  0  0  0
  -12.1896   15.6561   71.2886 C   0  0  0  0  0  0  0  0  0  0  0  0
  -12.2768   15.6000   75.1088 C   0  0  0  0  0  0  0  0  0  0  0  0
   -6.3059   19.3590   66.9154 C   0  0  0  0  0  0  0  0  0  0  0  0
   -7.0069   20.0396   66.0823 C   0  0  0  0  0  0  0  0  0  0  0  0
   -8.3351   20.2280   65.8978 C   0  0  0  0  0  0  0  0  0  0  0  0
   -9.1791   19.1617   66.4367 C   0  0  0  0  0  0  0  0  0  0  0  0
  -11.9586   16.3230   75.9328 O   0  0  0  0  0  0  0  0  0  0  0  0
  -12.4656   14.3697   75.4162 O   0  0  0  0  0  0  0  0  0  0  0  0
   -6.1094   21.0335   65.4122 N   0  0  0  0  0  0  0  0  0  0  0  0
   -5.2972   20.8477   64.4256 C   0  0  0  0  0  0  0  0  0  0  0  0
   -4.0527   20.7349   64.5156 C   0  0  0  0  0  0  0  0  0  0  0  0
  1  2  2  0
  1  6  1  0
  1 11  1  0
  2  3  1  0
  3  4  1  0
  3  7  1  0
  4  9  2  0
  4  5  1  0
  5  6  1  0
  5  8  1  0
  6 10  2  0
 11 12  3  0
 16 19  1  0
 19 24  2  0
 19 25  1  0
 21 26  1  0
 26 27  1  0
 27 28  1  0
  8 13  2  0
 13 20  1  0
 20 21  2  0
 21 22  1  0
 22 23  2  0
 23  8  1  0
  7 18  2  0
 18 17  1  0
 17 16  2  0
 16 15  1  0
 15 14  2  0
 14  7  1  0
M  END

$$$$
No_490-gen_results_new/Mpro_initial_molecule_p3/2024-06-19-20-31-25/
     RDKit          3D

 28 30  0  0  0  0  0  0  0  0999 V2000
  -10.3383   15.1532   67.5971 C   0  0  0  0  0  0  0  0  0  0  0  0
  -10.7220   15.1619   68.8301 N   0  0  0  0  0  0  0  0  0  0  0  0
  -10.4044   16.2024   69.6852 N   0  0  0  0  0  0  0  0  0  0  0  0
   -9.7271   17.3221   69.2607 C   0  0  0  0  0  0  0  0  0  0  0  0
   -9.3095   17.3212   67.9557 N   0  0  0  0  0  0  0  0  0  0  0  0
   -9.5450   16.2958   67.0814 C   0  0  0  0  0  0  0  0  0  0  0  0
  -10.8644   16.0907   71.0374 C   0  0  0  0  0  0  0  0  0  0  0  0
   -8.5330   18.4792   67.4604 C   0  0  0  0  0  0  0  0  0  0  0  0
   -9.5433   18.2987   69.9938 O   0  0  0  0  0  0  0  0  0  0  0  0
   -9.1481   16.2876   65.9124 O   0  0  0  0  0  0  0  0  0  0  0  0
  -10.7304   14.0247   66.8209 C   0  0  0  0  0  0  0  0  0  0  0  0
  -11.1003   13.0895   66.2465 N   0  0  0  0  0  0  0  0  0  0  0  0
   -7.0275   18.2876   67.7219 C   0  0  0  0  0  0  0  0  0  0  0  0
  -10.0126   16.3511   72.1395 C   0  0  0  0  0  0  0  0  0  0  0  0
  -10.4883   16.2212   73.4591 C   0  0  0  0  0  0  0  0  0  0  0  0
  -11.8103   15.8022   73.6966 C   0  0  0  0  0  0  0  0  0  0  0  0
  -12.6594   15.5153   72.6113 C   0  0  0  0  0  0  0  0  0  0  0  0
  -12.1896   15.6561   71.2886 C   0  0  0  0  0  0  0  0  0  0  0  0
  -12.2484   15.6088   75.0145 O   0  0  0  0  0  0  0  0  0  0  0  0
   -6.5341   17.3731   68.3686 C   0  0  0  0  0  0  0  0  0  0  0  0
   -5.1247   17.1828   68.5818 C   0  0  0  0  0  0  0  0  0  0  0  0
   -4.4393   18.0516   67.8375 C   0  0  0  0  0  0  0  0  0  0  0  0
   -4.8689   19.0477   67.0691 C   0  0  0  0  0  0  0  0  0  0  0  0
   -6.2627   19.1642   66.9258 C   0  0  0  0  0  0  0  0  0  0  0  0
  -12.3371   16.7920   75.7212 C   0  0  0  0  0  0  0  0  0  0  0  0
  -14.0713   14.8947   72.8095 C   0  0  0  0  0  0  0  0  0  0  0  0
   -3.9999   19.9993   66.3269 C   0  0  0  0  0  0  0  0  0  0  0  0
   -3.9254   20.0065   65.1118 N   0  0  0  0  0  0  0  0  0  0  0  0
  1  2  2  0
  1  6  1  0
  1 11  1  0
  2  3  1  0
  3  4  1  0
  3  7  1  0
  4  9  2  0
  4  5  1  0
  5  6  1  0
  5  8  1  0
  6 10  2  0
  8 13  1  0
 11 12  3  0
 16 19  1  0
 19 25  1  0
 17 26  1  0
 23 27  1  0
 27 28  1  0
 13 20  2  0
 20 21  1  0
 21 22  2  0
 22 23  1  0
 23 24  2  0
 24 13  1  0
  7 18  2  0
 18 17  1  0
 17 16  2  0
 16 15  1  0
 15 14  2  0
 14  7  1  0
M  END

$$$$
No_491-gen_results_new/Mpro_initial_molecule_p3/2024-06-19-20-31-25/
     RDKit          3D

 28 30  0  0  0  0  0  0  0  0999 V2000
  -10.3383   15.1532   67.5971 C   0  0  0  0  0  0  0  0  0  0  0  0
  -10.7220   15.1619   68.8301 N   0  0  0  0  0  0  0  0  0  0  0  0
  -10.4044   16.2024   69.6852 N   0  0  0  0  0  0  0  0  0  0  0  0
   -9.7271   17.3221   69.2607 C   0  0  0  0  0  0  0  0  0  0  0  0
   -9.3095   17.3212   67.9557 N   0  0  0  0  0  0  0  0  0  0  0  0
   -9.5450   16.2958   67.0814 C   0  0  0  0  0  0  0  0  0  0  0  0
  -10.8644   16.0907   71.0374 C   0  0  0  0  0  0  0  0  0  0  0  0
   -8.5330   18.4792   67.4604 C   0  0  0  0  0  0  0  0  0  0  0  0
   -9.5433   18.2987   69.9938 O   0  0  0  0  0  0  0  0  0  0  0  0
   -9.1481   16.2876   65.9124 O   0  0  0  0  0  0  0  0  0  0  0  0
  -10.7304   14.0247   66.8209 C   0  0  0  0  0  0  0  0  0  0  0  0
  -11.1003   13.0895   66.2465 N   0  0  0  0  0  0  0  0  0  0  0  0
   -7.0275   18.2876   67.7219 C   0  0  0  0  0  0  0  0  0  0  0  0
  -10.0126   16.3511   72.1395 C   0  0  0  0  0  0  0  0  0  0  0  0
  -10.4883   16.2212   73.4591 C   0  0  0  0  0  0  0  0  0  0  0  0
  -11.8103   15.8022   73.6966 C   0  0  0  0  0  0  0  0  0  0  0  0
  -12.6594   15.5153   72.6113 C   0  0  0  0  0  0  0  0  0  0  0  0
  -12.1896   15.6561   71.2886 C   0  0  0  0  0  0  0  0  0  0  0  0
  -12.3486   15.5799   75.3255 Cl  0  0  0  0  0  0  0  0  0  0  0  0
   -6.5523   17.2996   68.1995 N   0  0  0  0  0  0  0  0  0  0  0  0
   -6.2215   19.3508   67.2182 C   0  0  0  0  0  0  0  0  0  0  0  0
   -4.8605   19.1949   67.2433 C   0  0  0  0  0  0  0  0  0  0  0  0
   -4.3254   18.0508   67.9379 C   0  0  0  0  0  0  0  0  0  0  0  0
   -5.1794   17.0458   68.4262 C   0  0  0  0  0  0  0  0  0  0  0  0
   -3.9346   20.2236   66.8159 C   0  0  0  0  0  0  0  0  0  0  0  0
   -4.0677   21.3152   67.1767 O   0  0  0  0  0  0  0  0  0  0  0  0
   -2.9995   19.8378   65.9539 N   0  0  0  0  0  0  0  0  0  0  0  0
   -2.1330   20.8420   65.3357 C   0  0  0  0  0  0  0  0  0  0  0  0
  1  2  2  0
  1  6  1  0
  1 11  1  0
  2  3  1  0
  3  4  1  0
  3  7  1  0
  4  9  2  0
  4  5  1  0
  5  6  1  0
  5  8  1  0
  6 10  2  0
  8 13  1  0
 11 12  3  0
 16 19  1  0
 22 25  1  0
 25 26  2  0
 25 27  1  0
 27 28  1  0
 13 20  2  0
 20 24  1  0
 24 23  2  0
 23 22  1  0
 22 21  2  0
 21 13  1  0
  7 18  2  0
 18 17  1  0
 17 16  2  0
 16 15  1  0
 15 14  2  0
 14  7  1  0
M  END

$$$$
No_492-gen_results_new/Mpro_initial_molecule_p3/2024-06-19-20-31-25/
     RDKit          3D

 28 30  0  0  0  0  0  0  0  0999 V2000
  -10.3383   15.1532   67.5971 C   0  0  0  0  0  0  0  0  0  0  0  0
  -10.7220   15.1619   68.8301 N   0  0  0  0  0  0  0  0  0  0  0  0
  -10.4044   16.2024   69.6852 N   0  0  0  0  0  0  0  0  0  0  0  0
   -9.7271   17.3221   69.2607 C   0  0  0  0  0  0  0  0  0  0  0  0
   -9.3095   17.3212   67.9557 N   0  0  0  0  0  0  0  0  0  0  0  0
   -9.5450   16.2958   67.0814 C   0  0  0  0  0  0  0  0  0  0  0  0
  -10.8644   16.0907   71.0374 C   0  0  0  0  0  0  0  0  0  0  0  0
   -8.5330   18.4792   67.4604 C   0  0  0  0  0  0  0  0  0  0  0  0
   -9.5433   18.2987   69.9938 O   0  0  0  0  0  0  0  0  0  0  0  0
   -9.1481   16.2876   65.9124 O   0  0  0  0  0  0  0  0  0  0  0  0
  -10.7304   14.0247   66.8209 C   0  0  0  0  0  0  0  0  0  0  0  0
  -11.1003   13.0895   66.2465 N   0  0  0  0  0  0  0  0  0  0  0  0
   -7.0275   18.2876   67.7219 C   0  0  0  0  0  0  0  0  0  0  0  0
  -10.0126   16.3511   72.1395 C   0  0  0  0  0  0  0  0  0  0  0  0
  -10.4883   16.2212   73.4591 C   0  0  0  0  0  0  0  0  0  0  0  0
  -11.8103   15.8022   73.6966 C   0  0  0  0  0  0  0  0  0  0  0  0
  -12.6594   15.5153   72.6113 C   0  0  0  0  0  0  0  0  0  0  0  0
  -12.1896   15.6561   71.2886 C   0  0  0  0  0  0  0  0  0  0  0  0
  -12.2768   15.6000   75.1088 C   0  0  0  0  0  0  0  0  0  0  0  0
   -6.5341   17.3729   68.3685 C   0  0  0  0  0  0  0  0  0  0  0  0
   -5.0715   17.5390   68.5416 C   0  0  0  0  0  0  0  0  0  0  0  0
   -4.2817   18.2416   67.7594 C   0  0  0  0  0  0  0  0  0  0  0  0
   -4.9171   19.1696   66.9510 C   0  0  0  0  0  0  0  0  0  0  0  0
   -6.3135   19.1610   66.8064 C   0  0  0  0  0  0  0  0  0  0  0  0
  -12.3526   14.5927   75.5997 O   0  0  0  0  0  0  0  0  0  0  0  0
  -12.2003   16.7298   75.8912 N   0  0  0  0  0  0  0  0  0  0  0  0
  -13.9701   15.0081   72.8432 O   0  0  0  0  0  0  0  0  0  0  0  0
   -4.0922   20.0896   66.1333 C   0  0  0  0  0  0  0  0  0  0  0  0
  1  2  2  0
  1  6  1  0
  1 11  1  0
  2  3  1  0
  3  4  1  0
  3  7  1  0
  4  9  2  0
  4  5  1  0
  5  6  1  0
  5  8  1  0
  6 10  2  0
  8 13  1  0
 11 12  3  0
 16 19  1  0
 19 25  2  0
 19 26  1  0
 17 27  1  0
 23 28  1  0
 13 20  2  0
 20 21  1  0
 21 22  2  0
 22 23  1  0
 23 24  2  0
 24 13  1  0
  7 18  2  0
 18 17  1  0
 17 16  2  0
 16 15  1  0
 15 14  2  0
 14  7  1  0
M  END

$$$$
No_493-gen_results_new/Mpro_initial_molecule_p3/2024-06-19-20-31-25/
     RDKit          3D

 28 30  0  0  0  0  0  0  0  0999 V2000
  -10.3383   15.1532   67.5971 C   0  0  0  0  0  0  0  0  0  0  0  0
  -10.7220   15.1619   68.8301 N   0  0  0  0  0  0  0  0  0  0  0  0
  -10.4044   16.2024   69.6852 N   0  0  0  0  0  0  0  0  0  0  0  0
   -9.7271   17.3221   69.2607 C   0  0  0  0  0  0  0  0  0  0  0  0
   -9.3095   17.3212   67.9557 N   0  0  0  0  0  0  0  0  0  0  0  0
   -9.5450   16.2958   67.0814 C   0  0  0  0  0  0  0  0  0  0  0  0
  -10.8644   16.0907   71.0374 C   0  0  0  0  0  0  0  0  0  0  0  0
   -8.5330   18.4792   67.4604 C   0  0  0  0  0  0  0  0  0  0  0  0
   -9.5433   18.2987   69.9938 O   0  0  0  0  0  0  0  0  0  0  0  0
   -9.1481   16.2876   65.9124 O   0  0  0  0  0  0  0  0  0  0  0  0
  -10.7304   14.0247   66.8209 C   0  0  0  0  0  0  0  0  0  0  0  0
  -11.1003   13.0895   66.2465 N   0  0  0  0  0  0  0  0  0  0  0  0
   -7.0275   18.2876   67.7219 C   0  0  0  0  0  0  0  0  0  0  0  0
  -10.0126   16.3511   72.1395 C   0  0  0  0  0  0  0  0  0  0  0  0
  -10.4883   16.2212   73.4591 C   0  0  0  0  0  0  0  0  0  0  0  0
  -11.8103   15.8022   73.6966 C   0  0  0  0  0  0  0  0  0  0  0  0
  -12.6594   15.5153   72.6113 C   0  0  0  0  0  0  0  0  0  0  0  0
  -12.1896   15.6561   71.2886 C   0  0  0  0  0  0  0  0  0  0  0  0
  -12.3486   15.5799   75.3255 Cl  0  0  0  0  0  0  0  0  0  0  0  0
   -6.3899   19.0618   66.8364 O   0  0  0  0  0  0  0  0  0  0  0  0
   -6.5279   17.5641   68.5287 N   0  0  0  0  0  0  0  0  0  0  0  0
  -14.1195   14.9539   72.8045 C   0  0  0  0  0  0  0  0  0  0  0  0
   -5.1617   17.2957   68.5938 C   0  0  0  0  0  0  0  0  0  0  0  0
   -4.8150   16.1188   69.4173 C   0  0  0  0  0  0  0  0  0  0  0  0
   -3.4110   15.8146   69.5115 C   0  0  0  0  0  0  0  0  0  0  0  0
   -2.5692   16.7560   69.1227 N   0  0  0  0  0  0  0  0  0  0  0  0
   -4.3873   18.3137   68.7445 C   0  0  0  0  0  0  0  0  0  0  0  0
   -2.9199   18.0507   68.8648 C   0  0  0  0  0  0  0  0  0  0  0  0
  1  2  2  0
  1  6  1  0
  1 11  1  0
  2  3  1  0
  3  4  1  0
  3  7  1  0
  4  9  2  0
  4  5  1  0
  5  6  1  0
  5  8  1  0
  6 10  2  0
  8 13  1  0
 11 12  3  0
 16 19  1  0
 13 20  2  0
 13 21  1  0
 17 22  1  0
 21 23  1  0
 23 24  2  0
 24 25  1  0
 25 26  2  0
 26 28  1  0
 28 27  2  0
 27 23  1  0
  7 18  2  0
 18 17  1  0
 17 16  2  0
 16 15  1  0
 15 14  2  0
 14  7  1  0
M  END

$$$$
No_494-gen_results_new/Mpro_initial_molecule_p3/2024-06-19-20-31-25/
     RDKit          3D

 27 29  0  0  0  0  0  0  0  0999 V2000
  -10.3383   15.1532   67.5971 C   0  0  0  0  0  0  0  0  0  0  0  0
  -10.7220   15.1619   68.8301 N   0  0  0  0  0  0  0  0  0  0  0  0
  -10.4044   16.2024   69.6852 N   0  0  0  0  0  0  0  0  0  0  0  0
   -9.7271   17.3221   69.2607 C   0  0  0  0  0  0  0  0  0  0  0  0
   -9.3095   17.3212   67.9557 N   0  0  0  0  0  0  0  0  0  0  0  0
   -9.5450   16.2958   67.0814 C   0  0  0  0  0  0  0  0  0  0  0  0
  -10.8644   16.0907   71.0374 C   0  0  0  0  0  0  0  0  0  0  0  0
   -8.5330   18.4792   67.4604 C   0  0  0  0  0  0  0  0  0  0  0  0
   -9.5433   18.2987   69.9938 O   0  0  0  0  0  0  0  0  0  0  0  0
   -9.1481   16.2876   65.9124 O   0  0  0  0  0  0  0  0  0  0  0  0
  -10.7304   14.0247   66.8209 C   0  0  0  0  0  0  0  0  0  0  0  0
  -11.1003   13.0895   66.2465 N   0  0  0  0  0  0  0  0  0  0  0  0
   -7.0275   18.2876   67.7219 C   0  0  0  0  0  0  0  0  0  0  0  0
  -10.0126   16.3511   72.1395 C   0  0  0  0  0  0  0  0  0  0  0  0
  -10.4883   16.2212   73.4591 C   0  0  0  0  0  0  0  0  0  0  0  0
  -11.8103   15.8022   73.6966 C   0  0  0  0  0  0  0  0  0  0  0  0
  -12.6594   15.5153   72.6113 C   0  0  0  0  0  0  0  0  0  0  0  0
  -12.1896   15.6561   71.2886 C   0  0  0  0  0  0  0  0  0  0  0  0
  -12.3486   15.5799   75.3255 Cl  0  0  0  0  0  0  0  0  0  0  0  0
   -6.4859   19.1435   67.9014 N   0  0  0  0  0  0  0  0  0  0  0  0
   -5.7158   19.6325   68.8146 C   0  0  0  0  0  0  0  0  0  0  0  0
   -5.3287   18.5827   69.6188 N   0  0  0  0  0  0  0  0  0  0  0  0
   -4.6642   18.6763   70.8450 C   0  0  0  0  0  0  0  0  0  0  0  0
   -4.0508   19.9479   70.9765 C   0  0  0  0  0  0  0  0  0  0  0  0
   -4.1586   20.9489   69.9741 N   0  0  0  0  0  0  0  0  0  0  0  0
   -4.9176   20.7422   68.8675 C   0  0  0  0  0  0  0  0  0  0  0  0
   -6.7281   17.0404   67.9751 O   0  0  0  0  0  0  0  0  0  0  0  0
  1  2  2  0
  1  6  1  0
  1 11  1  0
  2  3  1  0
  3  4  1  0
  3  7  1  0
  4  9  2  0
  4  5  1  0
  5  6  1  0
  5  8  1  0
  6 10  2  0
  8 13  1  0
 11 12  3  0
 16 19  1  0
 13 20  1  0
 20 21  1  0
 13 27  2  0
  7 18  2  0
 18 17  1  0
 17 16  2  0
 16 15  1  0
 15 14  2  0
 14  7  1  0
 21 22  2  0
 22 23  1  0
 23 24  2  0
 24 25  1  0
 25 26  2  0
 26 21  1  0
M  END

$$$$
No_495-gen_results_new/Mpro_initial_molecule_p3/2024-06-19-20-31-25/
     RDKit          3D

 28 30  0  0  0  0  0  0  0  0999 V2000
  -10.3383   15.1532   67.5971 C   0  0  0  0  0  0  0  0  0  0  0  0
  -10.7220   15.1619   68.8301 N   0  0  0  0  0  0  0  0  0  0  0  0
  -10.4044   16.2024   69.6852 N   0  0  0  0  0  0  0  0  0  0  0  0
   -9.7271   17.3221   69.2607 C   0  0  0  0  0  0  0  0  0  0  0  0
   -9.3095   17.3212   67.9557 N   0  0  0  0  0  0  0  0  0  0  0  0
   -9.5450   16.2958   67.0814 C   0  0  0  0  0  0  0  0  0  0  0  0
  -10.8644   16.0907   71.0374 C   0  0  0  0  0  0  0  0  0  0  0  0
   -8.5330   18.4792   67.4604 C   0  0  0  0  0  0  0  0  0  0  0  0
   -9.5433   18.2987   69.9938 O   0  0  0  0  0  0  0  0  0  0  0  0
   -9.1481   16.2876   65.9124 O   0  0  0  0  0  0  0  0  0  0  0  0
  -10.7304   14.0247   66.8209 C   0  0  0  0  0  0  0  0  0  0  0  0
  -11.1003   13.0895   66.2465 N   0  0  0  0  0  0  0  0  0  0  0  0
   -7.0275   18.2876   67.7219 C   0  0  0  0  0  0  0  0  0  0  0  0
  -10.0126   16.3511   72.1395 C   0  0  0  0  0  0  0  0  0  0  0  0
  -10.4883   16.2212   73.4591 C   0  0  0  0  0  0  0  0  0  0  0  0
  -11.8103   15.8022   73.6966 C   0  0  0  0  0  0  0  0  0  0  0  0
  -12.6594   15.5153   72.6113 C   0  0  0  0  0  0  0  0  0  0  0  0
  -12.1896   15.6561   71.2886 C   0  0  0  0  0  0  0  0  0  0  0  0
  -12.2768   15.6000   75.1088 C   0  0  0  0  0  0  0  0  0  0  0  0
   -6.5341   17.3729   68.3685 C   0  0  0  0  0  0  0  0  0  0  0  0
   -5.1308   17.1882   68.5568 C   0  0  0  0  0  0  0  0  0  0  0  0
   -6.2352   18.5841   66.5228 C   0  0  0  0  0  0  0  0  0  0  0  0
   -4.8738   18.3561   66.5020 C   0  0  0  0  0  0  0  0  0  0  0  0
   -4.3443   17.5536   67.4637 C   0  0  0  0  0  0  0  0  0  0  0  0
  -12.3528   14.5928   75.5998 O   0  0  0  0  0  0  0  0  0  0  0  0
  -12.4213   16.7487   75.8003 N   0  0  0  0  0  0  0  0  0  0  0  0
   -2.8633   17.2124   67.3863 C   0  0  0  0  0  0  0  0  0  0  0  0
   -2.0426   18.1019   68.1976 C   0  0  0  0  0  0  0  0  0  0  0  0
  1  2  2  0
  1  6  1  0
  1 11  1  0
  2  3  1  0
  3  4  1  0
  3  7  1  0
  4  9  2  0
  4  5  1  0
  5  6  1  0
  5  8  1  0
  6 10  2  0
  8 13  1  0
 11 12  3  0
 16 19  1  0
 19 25  2  0
 19 26  1  0
 24 27  1  0
 27 28  2  0
 13 20  2  0
 20 21  1  0
 21 24  2  0
 24 23  1  0
 23 22  2  0
 22 13  1  0
  7 18  2  0
 18 17  1  0
 17 16  2  0
 16 15  1  0
 15 14  2  0
 14  7  1  0
M  END

$$$$
No_496-gen_results_new/Mpro_initial_molecule_p3/2024-06-19-20-31-25/
     RDKit          3D

 28 30  0  0  0  0  0  0  0  0999 V2000
  -10.3383   15.1532   67.5971 C   0  0  0  0  0  0  0  0  0  0  0  0
  -10.7220   15.1619   68.8301 N   0  0  0  0  0  0  0  0  0  0  0  0
  -10.4044   16.2024   69.6852 N   0  0  0  0  0  0  0  0  0  0  0  0
   -9.7271   17.3221   69.2607 C   0  0  0  0  0  0  0  0  0  0  0  0
   -9.3095   17.3212   67.9557 N   0  0  0  0  0  0  0  0  0  0  0  0
   -9.5450   16.2958   67.0814 C   0  0  0  0  0  0  0  0  0  0  0  0
  -10.8644   16.0907   71.0374 C   0  0  0  0  0  0  0  0  0  0  0  0
   -8.5330   18.4792   67.4604 C   0  0  0  0  0  0  0  0  0  0  0  0
   -9.5433   18.2987   69.9938 O   0  0  0  0  0  0  0  0  0  0  0  0
   -9.1481   16.2876   65.9124 O   0  0  0  0  0  0  0  0  0  0  0  0
  -10.7304   14.0247   66.8209 C   0  0  0  0  0  0  0  0  0  0  0  0
  -11.1003   13.0895   66.2465 N   0  0  0  0  0  0  0  0  0  0  0  0
   -7.0275   18.2876   67.7219 C   0  0  0  0  0  0  0  0  0  0  0  0
  -10.0126   16.3511   72.1395 C   0  0  0  0  0  0  0  0  0  0  0  0
  -10.4883   16.2212   73.4591 C   0  0  0  0  0  0  0  0  0  0  0  0
  -11.8103   15.8022   73.6966 C   0  0  0  0  0  0  0  0  0  0  0  0
  -12.6594   15.5153   72.6113 C   0  0  0  0  0  0  0  0  0  0  0  0
  -12.1896   15.6561   71.2886 C   0  0  0  0  0  0  0  0  0  0  0  0
  -12.2484   15.6088   75.0145 O   0  0  0  0  0  0  0  0  0  0  0  0
   -6.5557   17.2016   67.9039 O   0  0  0  0  0  0  0  0  0  0  0  0
   -6.4129   19.3145   68.0693 N   0  0  0  0  0  0  0  0  0  0  0  0
  -12.3392   16.7914   75.7224 C   0  0  0  0  0  0  0  0  0  0  0  0
   -4.9881   19.3267   68.2188 C   0  0  0  0  0  0  0  0  0  0  0  0
   -4.6374   19.3941   69.5274 C   0  0  0  0  0  0  0  0  0  0  0  0
   -3.2245   19.5548   69.7556 N   0  0  0  0  0  0  0  0  0  0  0  0
   -2.4178   19.7575   68.7451 C   0  0  0  0  0  0  0  0  0  0  0  0
   -4.1282   19.5398   67.2126 C   0  0  0  0  0  0  0  0  0  0  0  0
   -2.7974   19.7586   67.4648 C   0  0  0  0  0  0  0  0  0  0  0  0
  1  2  2  0
  1  6  1  0
  1 11  1  0
  2  3  1  0
  3  4  1  0
  3  7  1  0
  4  9  2  0
  4  5  1  0
  5  6  1  0
  5  8  1  0
  6 10  2  0
  8 13  1  0
 11 12  3  0
 16 19  1  0
 13 20  2  0
 13 21  1  0
 19 22  1  0
 21 23  1  0
 23 24  2  0
 24 25  1  0
 25 26  2  0
 26 28  1  0
 28 27  2  0
 27 23  1  0
  7 18  2  0
 18 17  1  0
 17 16  2  0
 16 15  1  0
 15 14  2  0
 14  7  1  0
M  END

$$$$
No_497-gen_results_new/Mpro_initial_molecule_p3/2024-06-19-20-31-25/
     RDKit          3D

 28 30  0  0  0  0  0  0  0  0999 V2000
  -10.3383   15.1532   67.5971 C   0  0  0  0  0  0  0  0  0  0  0  0
  -10.7220   15.1619   68.8301 N   0  0  0  0  0  0  0  0  0  0  0  0
  -10.4044   16.2024   69.6852 N   0  0  0  0  0  0  0  0  0  0  0  0
   -9.7271   17.3221   69.2607 C   0  0  0  0  0  0  0  0  0  0  0  0
   -9.3095   17.3212   67.9557 N   0  0  0  0  0  0  0  0  0  0  0  0
   -9.5450   16.2958   67.0814 C   0  0  0  0  0  0  0  0  0  0  0  0
  -10.8644   16.0907   71.0374 C   0  0  0  0  0  0  0  0  0  0  0  0
   -8.5330   18.4792   67.4604 C   0  0  0  0  0  0  0  0  0  0  0  0
   -9.5433   18.2987   69.9938 O   0  0  0  0  0  0  0  0  0  0  0  0
   -9.1481   16.2876   65.9124 O   0  0  0  0  0  0  0  0  0  0  0  0
  -10.7304   14.0247   66.8209 C   0  0  0  0  0  0  0  0  0  0  0  0
  -11.1003   13.0895   66.2465 N   0  0  0  0  0  0  0  0  0  0  0  0
   -7.0275   18.2876   67.7219 C   0  0  0  0  0  0  0  0  0  0  0  0
  -10.0126   16.3511   72.1395 C   0  0  0  0  0  0  0  0  0  0  0  0
  -10.4883   16.2212   73.4591 C   0  0  0  0  0  0  0  0  0  0  0  0
  -11.8103   15.8022   73.6966 C   0  0  0  0  0  0  0  0  0  0  0  0
  -12.6594   15.5153   72.6113 C   0  0  0  0  0  0  0  0  0  0  0  0
  -12.1896   15.6561   71.2886 C   0  0  0  0  0  0  0  0  0  0  0  0
  -12.3486   15.5799   75.3255 Cl  0  0  0  0  0  0  0  0  0  0  0  0
   -6.3058   19.3592   66.9157 C   0  0  0  0  0  0  0  0  0  0  0  0
   -7.0068   20.0397   66.0823 C   0  0  0  0  0  0  0  0  0  0  0  0
   -8.3353   20.2283   65.8986 C   0  0  0  0  0  0  0  0  0  0  0  0
   -9.1792   19.1618   66.4370 C   0  0  0  0  0  0  0  0  0  0  0  0
   -6.0246   21.0880   65.3618 C   0  0  0  0  0  0  0  0  0  0  0  0
   -5.8388   21.1850   64.2057 N   0  0  0  0  0  0  0  0  0  0  0  0
   -5.6114   22.0024   66.2061 O   0  0  0  0  0  0  0  0  0  0  0  0
   -4.9224   21.9573   63.5425 C   0  0  0  0  0  0  0  0  0  0  0  0
   -3.7445   21.2035   63.0647 C   0  0  0  0  0  0  0  0  0  0  0  0
  1  2  2  0
  1  6  1  0
  1 11  1  0
  2  3  1  0
  3  4  1  0
  3  7  1  0
  4  9  2  0
  4  5  1  0
  5  6  1  0
  5  8  1  0
  6 10  2  0
 11 12  3  0
 16 19  1  0
 21 24  1  0
 24 25  1  0
 24 26  2  0
 25 27  1  0
 27 28  1  0
  8 13  2  0
 13 20  1  0
 20 21  2  0
 21 22  1  0
 22 23  2  0
 23  8  1  0
  7 18  2  0
 18 17  1  0
 17 16  2  0
 16 15  1  0
 15 14  2  0
 14  7  1  0
M  END

$$$$
No_498-gen_results_new/Mpro_initial_molecule_p3/2024-06-19-20-31-25/
     RDKit          3D

 28 30  0  0  0  0  0  0  0  0999 V2000
  -10.3383   15.1532   67.5971 C   0  0  0  0  0  0  0  0  0  0  0  0
  -10.7220   15.1619   68.8301 N   0  0  0  0  0  0  0  0  0  0  0  0
  -10.4044   16.2024   69.6852 N   0  0  0  0  0  0  0  0  0  0  0  0
   -9.7271   17.3221   69.2607 C   0  0  0  0  0  0  0  0  0  0  0  0
   -9.3095   17.3212   67.9557 N   0  0  0  0  0  0  0  0  0  0  0  0
   -9.5450   16.2958   67.0814 C   0  0  0  0  0  0  0  0  0  0  0  0
  -10.8644   16.0907   71.0374 C   0  0  0  0  0  0  0  0  0  0  0  0
   -8.5330   18.4792   67.4604 C   0  0  0  0  0  0  0  0  0  0  0  0
   -9.5433   18.2987   69.9938 O   0  0  0  0  0  0  0  0  0  0  0  0
   -9.1481   16.2876   65.9124 O   0  0  0  0  0  0  0  0  0  0  0  0
  -10.7304   14.0247   66.8209 C   0  0  0  0  0  0  0  0  0  0  0  0
  -11.1003   13.0895   66.2465 N   0  0  0  0  0  0  0  0  0  0  0  0
   -7.0275   18.2876   67.7219 C   0  0  0  0  0  0  0  0  0  0  0  0
  -10.0126   16.3511   72.1395 C   0  0  0  0  0  0  0  0  0  0  0  0
  -10.4883   16.2212   73.4591 C   0  0  0  0  0  0  0  0  0  0  0  0
  -11.8103   15.8022   73.6966 C   0  0  0  0  0  0  0  0  0  0  0  0
  -12.6594   15.5153   72.6113 C   0  0  0  0  0  0  0  0  0  0  0  0
  -12.1896   15.6561   71.2886 C   0  0  0  0  0  0  0  0  0  0  0  0
  -12.2768   15.6000   75.1088 C   0  0  0  0  0  0  0  0  0  0  0  0
   -6.4701   16.9812   68.0727 Cl  0  0  0  0  0  0  0  0  0  0  0  0
  -12.5815   16.5950   75.6956 O   0  0  0  0  0  0  0  0  0  0  0  0
  -11.8944   14.5564   75.6571 O   0  0  0  0  0  0  0  0  0  0  0  0
   -6.2214   18.9996   66.6626 C   0  0  0  0  0  0  0  0  0  0  0  0
   -6.7481   19.7532   65.6171 C   0  0  0  0  0  0  0  0  0  0  0  0
   -8.1366   20.0561   65.6132 C   0  0  0  0  0  0  0  0  0  0  0  0
   -9.0665   19.2559   66.4186 C   0  0  0  0  0  0  0  0  0  0  0  0
   -5.8973   20.5405   64.9258 N   0  0  0  0  0  0  0  0  0  0  0  0
   -4.8000   21.1882   65.4965 C   0  0  0  0  0  0  0  0  0  0  0  0
  1  2  2  0
  1  6  1  0
  1 11  1  0
  2  3  1  0
  3  4  1  0
  3  7  1  0
  4  9  2  0
  4  5  1  0
  5  6  1  0
  5  8  1  0
  6 10  2  0
 11 12  3  0
 16 19  1  0
 13 20  1  0
 19 21  2  0
 19 22  1  0
 24 27  1  0
 27 28  1  0
  8 13  2  0
 13 23  1  0
 23 24  2  0
 24 25  1  0
 25 26  2  0
 26  8  1  0
  7 18  2  0
 18 17  1  0
 17 16  2  0
 16 15  1  0
 15 14  2  0
 14  7  1  0
M  END

$$$$
No_499-gen_results_new/Mpro_initial_molecule_p3/2024-06-19-20-31-25/
     RDKit          3D

 28 30  0  0  0  0  0  0  0  0999 V2000
  -10.3383   15.1532   67.5971 C   0  0  0  0  0  0  0  0  0  0  0  0
  -10.7220   15.1619   68.8301 N   0  0  0  0  0  0  0  0  0  0  0  0
  -10.4044   16.2024   69.6852 N   0  0  0  0  0  0  0  0  0  0  0  0
   -9.7271   17.3221   69.2607 C   0  0  0  0  0  0  0  0  0  0  0  0
   -9.3095   17.3212   67.9557 N   0  0  0  0  0  0  0  0  0  0  0  0
   -9.5450   16.2958   67.0814 C   0  0  0  0  0  0  0  0  0  0  0  0
  -10.8644   16.0907   71.0374 C   0  0  0  0  0  0  0  0  0  0  0  0
   -8.5330   18.4792   67.4604 C   0  0  0  0  0  0  0  0  0  0  0  0
   -9.5433   18.2987   69.9938 O   0  0  0  0  0  0  0  0  0  0  0  0
   -9.1481   16.2876   65.9124 O   0  0  0  0  0  0  0  0  0  0  0  0
  -10.7304   14.0247   66.8209 C   0  0  0  0  0  0  0  0  0  0  0  0
  -11.1003   13.0895   66.2465 N   0  0  0  0  0  0  0  0  0  0  0  0
   -7.0275   18.2876   67.7219 C   0  0  0  0  0  0  0  0  0  0  0  0
  -10.0126   16.3511   72.1395 C   0  0  0  0  0  0  0  0  0  0  0  0
  -10.4883   16.2212   73.4591 C   0  0  0  0  0  0  0  0  0  0  0  0
  -11.8103   15.8022   73.6966 C   0  0  0  0  0  0  0  0  0  0  0  0
  -12.6594   15.5153   72.6113 C   0  0  0  0  0  0  0  0  0  0  0  0
  -12.1896   15.6561   71.2886 C   0  0  0  0  0  0  0  0  0  0  0  0
  -12.3486   15.5799   75.3255 Cl  0  0  0  0  0  0  0  0  0  0  0  0
   -6.5344   17.3734   68.3696 C   0  0  0  0  0  0  0  0  0  0  0  0
   -5.1310   17.1884   68.5570 C   0  0  0  0  0  0  0  0  0  0  0  0
   -6.2282   19.1878   66.9085 C   0  0  0  0  0  0  0  0  0  0  0  0
   -4.8273   19.0031   67.0387 C   0  0  0  0  0  0  0  0  0  0  0  0
   -4.3061   18.0194   67.7979 C   0  0  0  0  0  0  0  0  0  0  0  0
  -14.0262   14.9876   72.8040 N   0  0  0  0  0  0  0  0  0  0  0  0
   -6.8562   20.2659   66.0644 C   0  0  0  0  0  0  0  0  0  0  0  0
   -8.0950   20.3802   65.9612 O   0  0  0  0  0  0  0  0  0  0  0  0
   -6.1028   20.9948   65.4098 O   0  0  0  0  0  0  0  0  0  0  0  0
  1  2  2  0
  1  6  1  0
  1 11  1  0
  2  3  1  0
  3  4  1  0
  3  7  1  0
  4  9  2  0
  4  5  1  0
  5  6  1  0
  5  8  1  0
  6 10  2  0
  8 13  1  0
 11 12  3  0
 16 19  1  0
 17 25  1  0
 22 26  1  0
 26 27  2  0
 26 28  1  0
 13 20  2  0
 20 21  1  0
 21 24  2  0
 24 23  1  0
 23 22  2  0
 22 13  1  0
  7 18  2  0
 18 17  1  0
 17 16  2  0
 16 15  1  0
 15 14  2  0
 14  7  1  0
M  END

$$$$
