No_48-gen_results_new/Mpro_initial_molecule_p3/2024-06-19-20-31-25/
  PyMOL2.3          3D                             0

 28 30  0  0  0  0  0  0  0  0999 V2000
  -10.3383   15.1532   67.5971 C   0  0  0  0  0  0  0  0  0  0  0  0
  -10.7220   15.1619   68.8301 N   0  0  0  0  0  0  0  0  0  0  0  0
  -10.4044   16.2024   69.6852 N   0  0  0  0  0  0  0  0  0  0  0  0
   -9.7271   17.3221   69.2607 C   0  0  0  0  0  0  0  0  0  0  0  0
   -9.3095   17.3212   67.9557 N   0  0  0  0  0  0  0  0  0  0  0  0
   -9.5450   16.2958   67.0814 C   0  0  0  0  0  0  0  0  0  0  0  0
  -10.8644   16.0907   71.0374 C   0  0  0  0  0  0  0  0  0  0  0  0
   -8.5330   18.4792   67.4604 C   0  0  0  0  0  0  0  0  0  0  0  0
   -9.5433   18.2987   69.9938 O   0  0  0  0  0  0  0  0  0  0  0  0
   -9.1481   16.2876   65.9124 O   0  0  0  0  0  0  0  0  0  0  0  0
  -10.7304   14.0247   66.8209 C   0  0  0  0  0  0  0  0  0  0  0  0
  -11.1003   13.0895   66.2465 N   0  0  0  0  0  0  0  0  0  0  0  0
   -7.0275   18.2876   67.7219 C   0  0  0  0  0  0  0  0  0  0  0  0
  -10.0126   16.3511   72.1395 C   0  0  0  0  0  0  0  0  0  0  0  0
  -10.4883   16.2212   73.4591 C   0  0  0  0  0  0  0  0  0  0  0  0
  -11.8103   15.8022   73.6966 C   0  0  0  0  0  0  0  0  0  0  0  0
  -12.6594   15.5153   72.6113 C   0  0  0  0  0  0  0  0  0  0  0  0
  -12.1896   15.6561   71.2886 C   0  0  0  0  0  0  0  0  0  0  0  0
  -12.2768   15.6000   75.1088 C   0  0  0  0  0  0  0  0  0  0  0  0
   -6.5341   17.3729   68.3685 C   0  0  0  0  0  0  0  0  0  0  0  0
   -5.1308   17.1882   68.5568 C   0  0  0  0  0  0  0  0  0  0  0  0
   -6.2282   19.1886   66.9092 C   0  0  0  0  0  0  0  0  0  0  0  0
   -4.8273   19.0035   67.0391 C   0  0  0  0  0  0  0  0  0  0  0  0
   -4.3060   18.0195   67.7979 C   0  0  0  0  0  0  0  0  0  0  0  0
  -11.4723   15.7216   75.8923 F   0  0  0  0  0  0  0  0  0  0  0  0
  -13.4092   15.5957   75.1867 F   0  0  0  0  0  0  0  0  0  0  0  0
  -12.5224   14.2630   74.8391 F   0  0  0  0  0  0  0  0  0  0  0  0
   -6.8559   20.2663   66.0651 C   0  0  0  0  0  0  0  0  0  0  0  0
  1  2  2  0  0  0  0
  1  6  1  0  0  0  0
  1 11  1  0  0  0  0
  2  3  1  0  0  0  0
  3  4  1  0  0  0  0
  3  7  1  0  0  0  0
  4  9  2  0  0  0  0
  4  5  1  0  0  0  0
  5  6  1  0  0  0  0
  5  8  1  0  0  0  0
  6 10  2  0  0  0  0
  8 13  1  0  0  0  0
 11 12  3  0  0  0  0
 16 19  1  0  0  0  0
 19 25  1  0  0  0  0
 19 26  1  0  0  0  0
 19 27  1  0  0  0  0
 22 28  1  0  0  0  0
 13 20  2  0  0  0  0
 20 21  1  0  0  0  0
 21 24  2  0  0  0  0
 23 24  1  0  0  0  0
 22 23  2  0  0  0  0
 13 22  1  0  0  0  0
  7 18  2  0  0  0  0
 17 18  1  0  0  0  0
 16 17  2  0  0  0  0
 15 16  1  0  0  0  0
 14 15  2  0  0  0  0
  7 14  1  0  0  0  0
M  END
$$$$
