No_0-gen_results_new/Mpro_new_generate_500/2024-01-19-21-58-56/
     RDKit          3D

 30 32  0  0  0  0  0  0  0  0999 V2000
   -9.1300   -2.9100    0.4520 O   0  0  0  0  0  0  0  0  0  0  0  0
  -10.2490   -2.6420    0.1800 C   0  0  0  0  0  0  0  0  0  0  0  0
  -11.3800   -3.0650    1.0860 C   0  0  0  0  0  0  0  0  0  0  0  0
  -11.2000   -3.8390    2.3880 C   0  0  0  0  0  0  0  0  0  0  0  0
  -10.9900   -5.0690    2.3420 N   0  0  0  0  0  0  0  0  0  0  0  0
  -12.7310   -2.7290    0.7330 N   0  0  0  0  0  0  0  0  0  0  0  0
  -12.9960   -1.9940   -0.4510 N   0  0  0  0  0  0  0  0  0  0  0  0
  -14.3580   -1.6940   -0.7530 C   0  0  0  0  0  0  0  0  0  0  0  0
  -15.0390   -0.7180   -0.0560 C   0  0  0  0  0  0  0  0  0  0  0  0
  -16.3510   -0.4690   -0.3980 C   0  0  0  0  0  0  0  0  0  0  0  0
  -16.9430   -1.2030   -1.4080 C   0  0  0  0  0  0  0  0  0  0  0  0
  -18.3840   -0.9560   -1.8060 C   0  0  0  0  0  0  0  0  0  0  0  0
  -16.2510   -2.1690   -2.1000 C   0  0  0  0  0  0  0  0  0  0  0  0
  -14.9490   -2.4160   -1.7590 C   0  0  0  0  0  0  0  0  0  0  0  0
  -11.9050   -1.5730   -1.3540 C   0  0  0  0  0  0  0  0  0  0  0  0
  -10.5280   -1.9050   -1.0240 N   0  0  0  0  0  0  0  0  0  0  0  0
   -9.4550   -1.4720   -1.9190 C   0  0  0  0  0  0  0  0  0  0  0  0
   -9.2820   -2.3940   -3.1270 C   0  0  0  0  0  0  0  0  0  0  0  0
   -7.8170   -2.5500   -3.5360 C   0  0  0  0  0  0  0  0  0  0  0  0
   -6.9720   -3.3210   -2.7550 C   0  0  0  0  0  0  0  0  0  0  0  0
   -5.6390   -3.4770   -3.1110 C   0  0  0  0  0  0  0  0  0  0  0  0
   -5.1940   -2.8390   -4.2640 C   0  0  0  0  0  0  0  0  0  0  0  0
   -6.0850   -2.0780   -5.0070 C   0  0  0  0  0  0  0  0  0  0  0  0
   -7.3470   -1.9600   -4.6270 N   0  0  0  0  0  0  0  0  0  0  0  0
  -12.1450   -0.9640   -2.3390 O   0  0  0  0  0  0  0  0  0  0  0  0
  -18.7610   -1.8760   -2.7390 F   0  0  0  0  0  0  0  0  0  0  0  0
  -18.4550    0.3250   -2.2750 F   0  0  0  0  0  0  0  0  0  0  0  0
  -19.1950   -1.1300   -0.7370 F   0  0  0  0  0  0  0  0  0  0  0  0
  -10.0899   -3.0088   -3.7244 O   0  0  0  0  0  0  0  0  0  0  0  0
  -16.7715   -2.9954   -3.1045 F   0  0  0  0  0  0  0  0  0  0  0  0
  1  2  2  0
  2  3  1  0
  2 16  1  0
  3  4  1  0
  3  6  2  0
  4  5  1  0
  6  7  1  0
  7 15  1  0
  7  8  1  0
 11 12  1  0
 12 28  1  0
 12 27  1  0
 12 26  1  0
 15 16  1  0
 15 25  2  0
 16 17  1  0
 17 18  1  0
 18 19  1  0
 18 29  2  0
 13 30  1  0
  8  9  2  0
  9 10  1  0
 10 11  2  0
 11 13  1  0
 13 14  2  0
 14  8  1  0
 19 20  2  0
 20 21  1  0
 21 22  2  0
 22 23  1  0
 23 24  2  0
 24 19  1  0
M  END

$$$$
No_1-gen_results_new/Mpro_new_generate_500/2024-01-19-21-58-56/
     RDKit          3D

 33 35  0  0  0  0  0  0  0  0999 V2000
   -9.1300   -2.9100    0.4520 O   0  0  0  0  0  0  0  0  0  0  0  0
  -10.2490   -2.6420    0.1800 C   0  0  0  0  0  0  0  0  0  0  0  0
  -11.3800   -3.0650    1.0860 C   0  0  0  0  0  0  0  0  0  0  0  0
  -11.2000   -3.8390    2.3880 C   0  0  0  0  0  0  0  0  0  0  0  0
  -10.9900   -5.0690    2.3420 N   0  0  0  0  0  0  0  0  0  0  0  0
  -12.7310   -2.7290    0.7330 N   0  0  0  0  0  0  0  0  0  0  0  0
  -12.9960   -1.9940   -0.4510 N   0  0  0  0  0  0  0  0  0  0  0  0
  -14.3580   -1.6940   -0.7530 C   0  0  0  0  0  0  0  0  0  0  0  0
  -15.0390   -0.7180   -0.0560 C   0  0  0  0  0  0  0  0  0  0  0  0
  -16.3510   -0.4690   -0.3980 C   0  0  0  0  0  0  0  0  0  0  0  0
  -16.9430   -1.2030   -1.4080 C   0  0  0  0  0  0  0  0  0  0  0  0
  -18.3840   -0.9560   -1.8060 C   0  0  0  0  0  0  0  0  0  0  0  0
  -16.2510   -2.1690   -2.1000 C   0  0  0  0  0  0  0  0  0  0  0  0
  -14.9490   -2.4160   -1.7590 C   0  0  0  0  0  0  0  0  0  0  0  0
  -11.9050   -1.5730   -1.3540 C   0  0  0  0  0  0  0  0  0  0  0  0
  -10.5280   -1.9050   -1.0240 N   0  0  0  0  0  0  0  0  0  0  0  0
   -9.4550   -1.4720   -1.9190 C   0  0  0  0  0  0  0  0  0  0  0  0
   -9.2820   -2.3940   -3.1270 C   0  0  0  0  0  0  0  0  0  0  0  0
   -7.8170   -2.5500   -3.5360 C   0  0  0  0  0  0  0  0  0  0  0  0
   -6.9720   -3.3210   -2.7550 C   0  0  0  0  0  0  0  0  0  0  0  0
   -5.6390   -3.4770   -3.1110 C   0  0  0  0  0  0  0  0  0  0  0  0
   -5.1940   -2.8390   -4.2640 C   0  0  0  0  0  0  0  0  0  0  0  0
   -6.0850   -2.0780   -5.0070 C   0  0  0  0  0  0  0  0  0  0  0  0
   -7.3470   -1.9600   -4.6270 N   0  0  0  0  0  0  0  0  0  0  0  0
  -12.1450   -0.9640   -2.3390 O   0  0  0  0  0  0  0  0  0  0  0  0
  -18.7610   -1.8760   -2.7390 F   0  0  0  0  0  0  0  0  0  0  0  0
  -18.4550    0.3250   -2.2750 F   0  0  0  0  0  0  0  0  0  0  0  0
  -19.1950   -1.1300   -0.7370 F   0  0  0  0  0  0  0  0  0  0  0  0
   -9.7920   -3.7475   -2.8656 C   0  0  0  0  0  0  0  0  0  0  0  0
  -10.2108   -1.7522   -4.5716 S   0  0  0  0  0  0  0  0  0  0  0  0
  -11.2851   -3.0960   -5.0458 C   0  0  0  0  0  0  0  0  0  0  0  0
  -10.1227   -0.7406   -5.1309 O   0  0  0  0  0  0  0  0  0  0  0  0
  -10.8335   -0.5478   -4.8637 O   0  0  0  0  0  0  0  0  0  0  0  0
  1  2  2  0
  2  3  1  0
  2 16  1  0
  3  4  1  0
  3  6  2  0
  4  5  1  0
  6  7  1  0
  7 15  1  0
  7  8  1  0
 11 12  1  0
 12 28  1  0
 12 27  1  0
 12 26  1  0
 15 16  1  0
 15 25  2  0
 16 17  1  0
 17 18  1  0
 18 19  1  0
 18 29  1  0
 18 30  1  0
 30 31  1  0
 30 32  2  0
 30 33  2  0
  8  9  2  0
  9 10  1  0
 10 11  2  0
 11 13  1  0
 13 14  2  0
 14  8  1  0
 19 20  2  0
 20 21  1  0
 21 22  2  0
 22 23  1  0
 23 24  2  0
 24 19  1  0
M  END

$$$$
No_2-gen_results_new/Mpro_new_generate_500/2024-01-19-21-58-56/
     RDKit          3D

 30 32  0  0  0  0  0  0  0  0999 V2000
   -9.1300   -2.9100    0.4520 O   0  0  0  0  0  0  0  0  0  0  0  0
  -10.2490   -2.6420    0.1800 C   0  0  0  0  0  0  0  0  0  0  0  0
  -11.3800   -3.0650    1.0860 C   0  0  0  0  0  0  0  0  0  0  0  0
  -11.2000   -3.8390    2.3880 C   0  0  0  0  0  0  0  0  0  0  0  0
  -10.9900   -5.0690    2.3420 N   0  0  0  0  0  0  0  0  0  0  0  0
  -12.7310   -2.7290    0.7330 N   0  0  0  0  0  0  0  0  0  0  0  0
  -12.9960   -1.9940   -0.4510 N   0  0  0  0  0  0  0  0  0  0  0  0
  -14.3580   -1.6940   -0.7530 C   0  0  0  0  0  0  0  0  0  0  0  0
  -15.0390   -0.7180   -0.0560 C   0  0  0  0  0  0  0  0  0  0  0  0
  -16.3510   -0.4690   -0.3980 C   0  0  0  0  0  0  0  0  0  0  0  0
  -16.9430   -1.2030   -1.4080 C   0  0  0  0  0  0  0  0  0  0  0  0
  -18.3840   -0.9560   -1.8060 C   0  0  0  0  0  0  0  0  0  0  0  0
  -16.2510   -2.1690   -2.1000 C   0  0  0  0  0  0  0  0  0  0  0  0
  -14.9490   -2.4160   -1.7590 C   0  0  0  0  0  0  0  0  0  0  0  0
  -11.9050   -1.5730   -1.3540 C   0  0  0  0  0  0  0  0  0  0  0  0
  -10.5280   -1.9050   -1.0240 N   0  0  0  0  0  0  0  0  0  0  0  0
   -9.4550   -1.4720   -1.9190 C   0  0  0  0  0  0  0  0  0  0  0  0
   -9.2820   -2.3940   -3.1270 C   0  0  0  0  0  0  0  0  0  0  0  0
   -7.8170   -2.5500   -3.5360 C   0  0  0  0  0  0  0  0  0  0  0  0
   -6.9720   -3.3210   -2.7550 C   0  0  0  0  0  0  0  0  0  0  0  0
   -5.6390   -3.4770   -3.1110 C   0  0  0  0  0  0  0  0  0  0  0  0
   -5.1940   -2.8390   -4.2640 C   0  0  0  0  0  0  0  0  0  0  0  0
   -6.0850   -2.0780   -5.0070 C   0  0  0  0  0  0  0  0  0  0  0  0
   -7.3470   -1.9600   -4.6270 N   0  0  0  0  0  0  0  0  0  0  0  0
  -12.1450   -0.9640   -2.3390 O   0  0  0  0  0  0  0  0  0  0  0  0
  -18.7610   -1.8760   -2.7390 F   0  0  0  0  0  0  0  0  0  0  0  0
  -18.4550    0.3250   -2.2750 F   0  0  0  0  0  0  0  0  0  0  0  0
  -19.1950   -1.1300   -0.7370 F   0  0  0  0  0  0  0  0  0  0  0  0
  -10.0899   -3.0088   -3.7244 O   0  0  0  0  0  0  0  0  0  0  0  0
  -16.9827   -3.3548   -3.5182 Br  0  0  0  0  0  0  0  0  0  0  0  0
  1  2  2  0
  2  3  1  0
  2 16  1  0
  3  4  1  0
  3  6  2  0
  4  5  1  0
  6  7  1  0
  7 15  1  0
  7  8  1  0
 11 12  1  0
 12 28  1  0
 12 27  1  0
 12 26  1  0
 15 16  1  0
 15 25  2  0
 16 17  1  0
 17 18  1  0
 18 19  1  0
 18 29  2  0
 13 30  1  0
  8  9  2  0
  9 10  1  0
 10 11  2  0
 11 13  1  0
 13 14  2  0
 14  8  1  0
 19 20  2  0
 20 21  1  0
 21 22  2  0
 22 23  1  0
 23 24  2  0
 24 19  1  0
M  END

$$$$
No_3-gen_results_new/Mpro_new_generate_500/2024-01-19-21-58-56/
     RDKit          3D

 32 34  0  0  0  0  0  0  0  0999 V2000
   -9.1300   -2.9100    0.4520 O   0  0  0  0  0  0  0  0  0  0  0  0
  -10.2490   -2.6420    0.1800 C   0  0  0  0  0  0  0  0  0  0  0  0
  -11.3800   -3.0650    1.0860 C   0  0  0  0  0  0  0  0  0  0  0  0
  -11.2000   -3.8390    2.3880 C   0  0  0  0  0  0  0  0  0  0  0  0
  -10.9900   -5.0690    2.3420 N   0  0  0  0  0  0  0  0  0  0  0  0
  -12.7310   -2.7290    0.7330 N   0  0  0  0  0  0  0  0  0  0  0  0
  -12.9960   -1.9940   -0.4510 N   0  0  0  0  0  0  0  0  0  0  0  0
  -14.3580   -1.6940   -0.7530 C   0  0  0  0  0  0  0  0  0  0  0  0
  -15.0390   -0.7180   -0.0560 C   0  0  0  0  0  0  0  0  0  0  0  0
  -16.3510   -0.4690   -0.3980 C   0  0  0  0  0  0  0  0  0  0  0  0
  -16.9430   -1.2030   -1.4080 C   0  0  0  0  0  0  0  0  0  0  0  0
  -18.3840   -0.9560   -1.8060 C   0  0  0  0  0  0  0  0  0  0  0  0
  -16.2510   -2.1690   -2.1000 C   0  0  0  0  0  0  0  0  0  0  0  0
  -14.9490   -2.4160   -1.7590 C   0  0  0  0  0  0  0  0  0  0  0  0
  -11.9050   -1.5730   -1.3540 C   0  0  0  0  0  0  0  0  0  0  0  0
  -10.5280   -1.9050   -1.0240 N   0  0  0  0  0  0  0  0  0  0  0  0
   -9.4550   -1.4720   -1.9190 C   0  0  0  0  0  0  0  0  0  0  0  0
   -9.2820   -2.3940   -3.1270 C   0  0  0  0  0  0  0  0  0  0  0  0
   -7.8170   -2.5500   -3.5360 C   0  0  0  0  0  0  0  0  0  0  0  0
   -6.9720   -3.3210   -2.7550 C   0  0  0  0  0  0  0  0  0  0  0  0
   -5.6390   -3.4770   -3.1110 C   0  0  0  0  0  0  0  0  0  0  0  0
   -5.1940   -2.8390   -4.2640 C   0  0  0  0  0  0  0  0  0  0  0  0
   -6.0850   -2.0780   -5.0070 C   0  0  0  0  0  0  0  0  0  0  0  0
   -7.3470   -1.9600   -4.6270 N   0  0  0  0  0  0  0  0  0  0  0  0
  -12.1450   -0.9640   -2.3390 O   0  0  0  0  0  0  0  0  0  0  0  0
  -18.7610   -1.8760   -2.7390 F   0  0  0  0  0  0  0  0  0  0  0  0
  -18.4550    0.3250   -2.2750 F   0  0  0  0  0  0  0  0  0  0  0  0
  -19.1950   -1.1300   -0.7370 F   0  0  0  0  0  0  0  0  0  0  0  0
  -10.0453   -2.0069   -4.3181 C   0  0  0  0  0  0  0  0  0  0  0  0
   -9.8476   -3.8948   -2.8015 C   0  0  0  0  0  0  0  0  0  0  0  0
   -9.1680   -4.8526   -2.1325 C   0  0  0  0  0  0  0  0  0  0  0  0
  -11.1809   -4.2917   -3.1683 C   0  0  0  0  0  0  0  0  0  0  0  0
  1  2  2  0
  2  3  1  0
  2 16  1  0
  3  4  1  0
  3  6  2  0
  4  5  1  0
  6  7  1  0
  7 15  1  0
  7  8  1  0
 11 12  1  0
 12 28  1  0
 12 27  1  0
 12 26  1  0
 15 16  1  0
 15 25  2  0
 16 17  1  0
 17 18  1  0
 18 19  1  0
 18 29  1  0
 18 30  1  0
 30 31  1  0
 30 32  1  0
  8  9  2  0
  9 10  1  0
 10 11  2  0
 11 13  1  0
 13 14  2  0
 14  8  1  0
 19 20  2  0
 20 21  1  0
 21 22  2  0
 22 23  1  0
 23 24  2  0
 24 19  1  0
M  END

$$$$
No_4-gen_results_new/Mpro_new_generate_500/2024-01-19-21-58-56/
     RDKit          3D

 32 34  0  0  0  0  0  0  0  0999 V2000
   -9.1300   -2.9100    0.4520 O   0  0  0  0  0  0  0  0  0  0  0  0
  -10.2490   -2.6420    0.1800 C   0  0  0  0  0  0  0  0  0  0  0  0
  -11.3800   -3.0650    1.0860 C   0  0  0  0  0  0  0  0  0  0  0  0
  -11.2000   -3.8390    2.3880 C   0  0  0  0  0  0  0  0  0  0  0  0
  -10.9900   -5.0690    2.3420 N   0  0  0  0  0  0  0  0  0  0  0  0
  -12.7310   -2.7290    0.7330 N   0  0  0  0  0  0  0  0  0  0  0  0
  -12.9960   -1.9940   -0.4510 N   0  0  0  0  0  0  0  0  0  0  0  0
  -14.3580   -1.6940   -0.7530 C   0  0  0  0  0  0  0  0  0  0  0  0
  -15.0390   -0.7180   -0.0560 C   0  0  0  0  0  0  0  0  0  0  0  0
  -16.3510   -0.4690   -0.3980 C   0  0  0  0  0  0  0  0  0  0  0  0
  -16.9430   -1.2030   -1.4080 C   0  0  0  0  0  0  0  0  0  0  0  0
  -18.3840   -0.9560   -1.8060 C   0  0  0  0  0  0  0  0  0  0  0  0
  -16.2510   -2.1690   -2.1000 C   0  0  0  0  0  0  0  0  0  0  0  0
  -14.9490   -2.4160   -1.7590 C   0  0  0  0  0  0  0  0  0  0  0  0
  -11.9050   -1.5730   -1.3540 C   0  0  0  0  0  0  0  0  0  0  0  0
  -10.5280   -1.9050   -1.0240 N   0  0  0  0  0  0  0  0  0  0  0  0
   -9.4550   -1.4720   -1.9190 C   0  0  0  0  0  0  0  0  0  0  0  0
   -9.2820   -2.3940   -3.1270 C   0  0  0  0  0  0  0  0  0  0  0  0
   -7.8170   -2.5500   -3.5360 C   0  0  0  0  0  0  0  0  0  0  0  0
   -6.9720   -3.3210   -2.7550 C   0  0  0  0  0  0  0  0  0  0  0  0
   -5.6390   -3.4770   -3.1110 C   0  0  0  0  0  0  0  0  0  0  0  0
   -5.1940   -2.8390   -4.2640 C   0  0  0  0  0  0  0  0  0  0  0  0
   -6.0850   -2.0780   -5.0070 C   0  0  0  0  0  0  0  0  0  0  0  0
   -7.3470   -1.9600   -4.6270 N   0  0  0  0  0  0  0  0  0  0  0  0
  -12.1450   -0.9640   -2.3390 O   0  0  0  0  0  0  0  0  0  0  0  0
  -18.7610   -1.8760   -2.7390 F   0  0  0  0  0  0  0  0  0  0  0  0
  -18.4550    0.3250   -2.2750 F   0  0  0  0  0  0  0  0  0  0  0  0
  -19.1950   -1.1300   -0.7370 F   0  0  0  0  0  0  0  0  0  0  0  0
  -10.0453   -2.0069   -4.3181 C   0  0  0  0  0  0  0  0  0  0  0  0
   -9.9778   -4.0443   -2.8400 S   0  0  0  0  0  0  0  0  0  0  0  0
   -9.0085   -4.8692   -2.1180 O   0  0  0  0  0  0  0  0  0  0  0  0
  -11.2143   -4.4752   -3.1388 O   0  0  0  0  0  0  0  0  0  0  0  0
  1  2  2  0
  2  3  1  0
  2 16  1  0
  3  4  1  0
  3  6  2  0
  4  5  1  0
  6  7  1  0
  7 15  1  0
  7  8  1  0
 11 12  1  0
 12 28  1  0
 12 27  1  0
 12 26  1  0
 15 16  1  0
 15 25  2  0
 16 17  1  0
 17 18  1  0
 18 19  1  0
 18 29  1  0
 18 30  1  0
 30 31  2  0
 30 32  2  0
  8  9  2  0
  9 10  1  0
 10 11  2  0
 11 13  1  0
 13 14  2  0
 14  8  1  0
 19 20  2  0
 20 21  1  0
 21 22  2  0
 22 23  1  0
 23 24  2  0
 24 19  1  0
M  END

$$$$
No_5-gen_results_new/Mpro_new_generate_500/2024-01-19-21-58-56/
     RDKit          3D

 31 33  0  0  0  0  0  0  0  0999 V2000
   -9.1300   -2.9100    0.4520 O   0  0  0  0  0  0  0  0  0  0  0  0
  -10.2490   -2.6420    0.1800 C   0  0  0  0  0  0  0  0  0  0  0  0
  -11.3800   -3.0650    1.0860 C   0  0  0  0  0  0  0  0  0  0  0  0
  -11.2000   -3.8390    2.3880 C   0  0  0  0  0  0  0  0  0  0  0  0
  -10.9900   -5.0690    2.3420 N   0  0  0  0  0  0  0  0  0  0  0  0
  -12.7310   -2.7290    0.7330 N   0  0  0  0  0  0  0  0  0  0  0  0
  -12.9960   -1.9940   -0.4510 N   0  0  0  0  0  0  0  0  0  0  0  0
  -14.3580   -1.6940   -0.7530 C   0  0  0  0  0  0  0  0  0  0  0  0
  -15.0390   -0.7180   -0.0560 C   0  0  0  0  0  0  0  0  0  0  0  0
  -16.3510   -0.4690   -0.3980 C   0  0  0  0  0  0  0  0  0  0  0  0
  -16.9430   -1.2030   -1.4080 C   0  0  0  0  0  0  0  0  0  0  0  0
  -18.3840   -0.9560   -1.8060 C   0  0  0  0  0  0  0  0  0  0  0  0
  -16.2510   -2.1690   -2.1000 C   0  0  0  0  0  0  0  0  0  0  0  0
  -14.9490   -2.4160   -1.7590 C   0  0  0  0  0  0  0  0  0  0  0  0
  -11.9050   -1.5730   -1.3540 C   0  0  0  0  0  0  0  0  0  0  0  0
  -10.5280   -1.9050   -1.0240 N   0  0  0  0  0  0  0  0  0  0  0  0
   -9.4550   -1.4720   -1.9190 C   0  0  0  0  0  0  0  0  0  0  0  0
   -9.2820   -2.3940   -3.1270 C   0  0  0  0  0  0  0  0  0  0  0  0
   -7.8170   -2.5500   -3.5360 C   0  0  0  0  0  0  0  0  0  0  0  0
   -6.9720   -3.3210   -2.7550 C   0  0  0  0  0  0  0  0  0  0  0  0
   -5.6390   -3.4770   -3.1110 C   0  0  0  0  0  0  0  0  0  0  0  0
   -5.1940   -2.8390   -4.2640 C   0  0  0  0  0  0  0  0  0  0  0  0
   -6.0850   -2.0780   -5.0070 C   0  0  0  0  0  0  0  0  0  0  0  0
   -7.3470   -1.9600   -4.6270 N   0  0  0  0  0  0  0  0  0  0  0  0
  -12.1450   -0.9640   -2.3390 O   0  0  0  0  0  0  0  0  0  0  0  0
  -18.7610   -1.8760   -2.7390 F   0  0  0  0  0  0  0  0  0  0  0  0
  -18.4550    0.3250   -2.2750 F   0  0  0  0  0  0  0  0  0  0  0  0
  -19.1950   -1.1300   -0.7370 F   0  0  0  0  0  0  0  0  0  0  0  0
   -9.6560   -3.6380   -2.7665 F   0  0  0  0  0  0  0  0  0  0  0  0
  -10.0460   -1.9845   -4.1698 F   0  0  0  0  0  0  0  0  0  0  0  0
  -16.9041   -3.2633   -3.3909 Cl  0  0  0  0  0  0  0  0  0  0  0  0
  1  2  2  0
  2  3  1  0
  2 16  1  0
  3  4  1  0
  3  6  2  0
  4  5  1  0
  6  7  1  0
  7 15  1  0
  7  8  1  0
 11 12  1  0
 12 28  1  0
 12 27  1  0
 12 26  1  0
 15 16  1  0
 15 25  2  0
 16 17  1  0
 17 18  1  0
 18 19  1  0
 18 29  1  0
 18 30  1  0
 13 31  1  0
  8  9  2  0
  9 10  1  0
 10 11  2  0
 11 13  1  0
 13 14  2  0
 14  8  1  0
 19 20  2  0
 20 21  1  0
 21 22  2  0
 22 23  1  0
 23 24  2  0
 24 19  1  0
M  END

$$$$
No_6-gen_results_new/Mpro_new_generate_500/2024-01-19-21-58-56/
     RDKit          3D

 33 35  0  0  0  0  0  0  0  0999 V2000
   -9.1300   -2.9100    0.4520 O   0  0  0  0  0  0  0  0  0  0  0  0
  -10.2490   -2.6420    0.1800 C   0  0  0  0  0  0  0  0  0  0  0  0
  -11.3800   -3.0650    1.0860 C   0  0  0  0  0  0  0  0  0  0  0  0
  -11.2000   -3.8390    2.3880 C   0  0  0  0  0  0  0  0  0  0  0  0
  -10.9900   -5.0690    2.3420 N   0  0  0  0  0  0  0  0  0  0  0  0
  -12.7310   -2.7290    0.7330 N   0  0  0  0  0  0  0  0  0  0  0  0
  -12.9960   -1.9940   -0.4510 N   0  0  0  0  0  0  0  0  0  0  0  0
  -14.3580   -1.6940   -0.7530 C   0  0  0  0  0  0  0  0  0  0  0  0
  -15.0390   -0.7180   -0.0560 C   0  0  0  0  0  0  0  0  0  0  0  0
  -16.3510   -0.4690   -0.3980 C   0  0  0  0  0  0  0  0  0  0  0  0
  -16.9430   -1.2030   -1.4080 C   0  0  0  0  0  0  0  0  0  0  0  0
  -18.3840   -0.9560   -1.8060 C   0  0  0  0  0  0  0  0  0  0  0  0
  -16.2510   -2.1690   -2.1000 C   0  0  0  0  0  0  0  0  0  0  0  0
  -14.9490   -2.4160   -1.7590 C   0  0  0  0  0  0  0  0  0  0  0  0
  -11.9050   -1.5730   -1.3540 C   0  0  0  0  0  0  0  0  0  0  0  0
  -10.5280   -1.9050   -1.0240 N   0  0  0  0  0  0  0  0  0  0  0  0
   -9.4550   -1.4720   -1.9190 C   0  0  0  0  0  0  0  0  0  0  0  0
   -9.2820   -2.3940   -3.1270 C   0  0  0  0  0  0  0  0  0  0  0  0
   -7.8170   -2.5500   -3.5360 C   0  0  0  0  0  0  0  0  0  0  0  0
   -6.9720   -3.3210   -2.7550 C   0  0  0  0  0  0  0  0  0  0  0  0
   -5.6390   -3.4770   -3.1110 C   0  0  0  0  0  0  0  0  0  0  0  0
   -5.1940   -2.8390   -4.2640 C   0  0  0  0  0  0  0  0  0  0  0  0
   -6.0850   -2.0780   -5.0070 C   0  0  0  0  0  0  0  0  0  0  0  0
   -7.3470   -1.9600   -4.6270 N   0  0  0  0  0  0  0  0  0  0  0  0
  -12.1450   -0.9640   -2.3390 O   0  0  0  0  0  0  0  0  0  0  0  0
  -18.7610   -1.8760   -2.7390 F   0  0  0  0  0  0  0  0  0  0  0  0
  -18.4550    0.3250   -2.2750 F   0  0  0  0  0  0  0  0  0  0  0  0
  -19.1950   -1.1300   -0.7370 F   0  0  0  0  0  0  0  0  0  0  0  0
  -10.3357   -3.2037   -4.0333 S   0  0  0  0  0  0  0  0  0  0  0  0
  -10.8700   -4.7104   -3.4574 C   0  0  0  0  0  0  0  0  0  0  0  0
  -11.4194   -2.3360   -4.3597 O   0  0  0  0  0  0  0  0  0  0  0  0
   -9.7384   -3.6391   -5.4092 O   0  0  0  0  0  0  0  0  0  0  0  0
   -9.2118   -2.2144   -2.0857 F   0  0  0  0  0  0  0  0  0  0  0  0
  1  2  2  0
  2  3  1  0
  2 16  1  0
  3  4  1  0
  3  6  2  0
  4  5  1  0
  6  7  1  0
  7 15  1  0
  7  8  1  0
 11 12  1  0
 12 28  1  0
 12 27  1  0
 12 26  1  0
 15 16  1  0
 15 25  2  0
 16 17  1  0
 17 18  1  0
 18 19  1  0
 18 29  1  0
 29 30  1  0
 29 31  2  0
 29 32  2  0
 18 33  1  0
  8  9  2  0
  9 10  1  0
 10 11  2  0
 11 13  1  0
 13 14  2  0
 14  8  1  0
 19 20  2  0
 20 21  1  0
 21 22  2  0
 22 23  1  0
 23 24  2  0
 24 19  1  0
M  END

$$$$
No_7-gen_results_new/Mpro_new_generate_500/2024-01-19-21-58-56/
     RDKit          3D

 31 33  0  0  0  0  0  0  0  0999 V2000
   -9.1300   -2.9100    0.4520 O   0  0  0  0  0  0  0  0  0  0  0  0
  -10.2490   -2.6420    0.1800 C   0  0  0  0  0  0  0  0  0  0  0  0
  -11.3800   -3.0650    1.0860 C   0  0  0  0  0  0  0  0  0  0  0  0
  -11.2000   -3.8390    2.3880 C   0  0  0  0  0  0  0  0  0  0  0  0
  -10.9900   -5.0690    2.3420 N   0  0  0  0  0  0  0  0  0  0  0  0
  -12.7310   -2.7290    0.7330 N   0  0  0  0  0  0  0  0  0  0  0  0
  -12.9960   -1.9940   -0.4510 N   0  0  0  0  0  0  0  0  0  0  0  0
  -14.3580   -1.6940   -0.7530 C   0  0  0  0  0  0  0  0  0  0  0  0
  -15.0390   -0.7180   -0.0560 C   0  0  0  0  0  0  0  0  0  0  0  0
  -16.3510   -0.4690   -0.3980 C   0  0  0  0  0  0  0  0  0  0  0  0
  -16.9430   -1.2030   -1.4080 C   0  0  0  0  0  0  0  0  0  0  0  0
  -18.3840   -0.9560   -1.8060 C   0  0  0  0  0  0  0  0  0  0  0  0
  -16.2510   -2.1690   -2.1000 C   0  0  0  0  0  0  0  0  0  0  0  0
  -14.9490   -2.4160   -1.7590 C   0  0  0  0  0  0  0  0  0  0  0  0
  -11.9050   -1.5730   -1.3540 C   0  0  0  0  0  0  0  0  0  0  0  0
  -10.5280   -1.9050   -1.0240 N   0  0  0  0  0  0  0  0  0  0  0  0
   -9.4550   -1.4720   -1.9190 C   0  0  0  0  0  0  0  0  0  0  0  0
   -9.2820   -2.3940   -3.1270 C   0  0  0  0  0  0  0  0  0  0  0  0
   -7.8170   -2.5500   -3.5360 C   0  0  0  0  0  0  0  0  0  0  0  0
   -6.9720   -3.3210   -2.7550 C   0  0  0  0  0  0  0  0  0  0  0  0
   -5.6390   -3.4770   -3.1110 C   0  0  0  0  0  0  0  0  0  0  0  0
   -5.1940   -2.8390   -4.2640 C   0  0  0  0  0  0  0  0  0  0  0  0
   -6.0850   -2.0780   -5.0070 C   0  0  0  0  0  0  0  0  0  0  0  0
   -7.3470   -1.9600   -4.6270 N   0  0  0  0  0  0  0  0  0  0  0  0
  -12.1450   -0.9640   -2.3390 O   0  0  0  0  0  0  0  0  0  0  0  0
  -18.7610   -1.8760   -2.7390 F   0  0  0  0  0  0  0  0  0  0  0  0
  -18.4550    0.3250   -2.2750 F   0  0  0  0  0  0  0  0  0  0  0  0
  -19.1950   -1.1300   -0.7370 F   0  0  0  0  0  0  0  0  0  0  0  0
   -9.6560   -3.6380   -2.7665 F   0  0  0  0  0  0  0  0  0  0  0  0
  -10.0460   -1.9845   -4.1698 F   0  0  0  0  0  0  0  0  0  0  0  0
  -16.7714   -2.9962   -3.1041 F   0  0  0  0  0  0  0  0  0  0  0  0
  1  2  2  0
  2  3  1  0
  2 16  1  0
  3  4  1  0
  3  6  2  0
  4  5  1  0
  6  7  1  0
  7 15  1  0
  7  8  1  0
 11 12  1  0
 12 28  1  0
 12 27  1  0
 12 26  1  0
 15 16  1  0
 15 25  2  0
 16 17  1  0
 17 18  1  0
 18 19  1  0
 18 29  1  0
 18 30  1  0
 13 31  1  0
  8  9  2  0
  9 10  1  0
 10 11  2  0
 11 13  1  0
 13 14  2  0
 14  8  1  0
 19 20  2  0
 20 21  1  0
 21 22  2  0
 22 23  1  0
 23 24  2  0
 24 19  1  0
M  END

$$$$
No_8-gen_results_new/Mpro_new_generate_500/2024-01-19-21-58-56/
     RDKit          3D

 34 37  0  0  0  0  0  0  0  0999 V2000
   -9.1300   -2.9100    0.4520 O   0  0  0  0  0  0  0  0  0  0  0  0
  -10.2490   -2.6420    0.1800 C   0  0  0  0  0  0  0  0  0  0  0  0
  -11.3800   -3.0650    1.0860 C   0  0  0  0  0  0  0  0  0  0  0  0
  -11.2000   -3.8390    2.3880 C   0  0  0  0  0  0  0  0  0  0  0  0
  -10.9900   -5.0690    2.3420 N   0  0  0  0  0  0  0  0  0  0  0  0
  -12.7310   -2.7290    0.7330 N   0  0  0  0  0  0  0  0  0  0  0  0
  -12.9960   -1.9940   -0.4510 N   0  0  0  0  0  0  0  0  0  0  0  0
  -14.3580   -1.6940   -0.7530 C   0  0  0  0  0  0  0  0  0  0  0  0
  -15.0390   -0.7180   -0.0560 C   0  0  0  0  0  0  0  0  0  0  0  0
  -16.3510   -0.4690   -0.3980 C   0  0  0  0  0  0  0  0  0  0  0  0
  -16.9430   -1.2030   -1.4080 C   0  0  0  0  0  0  0  0  0  0  0  0
  -18.3840   -0.9560   -1.8060 C   0  0  0  0  0  0  0  0  0  0  0  0
  -16.2510   -2.1690   -2.1000 C   0  0  0  0  0  0  0  0  0  0  0  0
  -14.9490   -2.4160   -1.7590 C   0  0  0  0  0  0  0  0  0  0  0  0
  -11.9050   -1.5730   -1.3540 C   0  0  0  0  0  0  0  0  0  0  0  0
  -10.5280   -1.9050   -1.0240 N   0  0  0  0  0  0  0  0  0  0  0  0
   -9.4550   -1.4720   -1.9190 C   0  0  0  0  0  0  0  0  0  0  0  0
   -9.2820   -2.3940   -3.1270 C   0  0  0  0  0  0  0  0  0  0  0  0
   -7.8170   -2.5500   -3.5360 C   0  0  0  0  0  0  0  0  0  0  0  0
   -6.9720   -3.3210   -2.7550 C   0  0  0  0  0  0  0  0  0  0  0  0
   -5.6390   -3.4770   -3.1110 C   0  0  0  0  0  0  0  0  0  0  0  0
   -5.1940   -2.8390   -4.2640 C   0  0  0  0  0  0  0  0  0  0  0  0
   -6.0850   -2.0780   -5.0070 C   0  0  0  0  0  0  0  0  0  0  0  0
   -7.3470   -1.9600   -4.6270 N   0  0  0  0  0  0  0  0  0  0  0  0
  -12.1450   -0.9640   -2.3390 O   0  0  0  0  0  0  0  0  0  0  0  0
  -18.7610   -1.8760   -2.7390 F   0  0  0  0  0  0  0  0  0  0  0  0
  -18.4550    0.3250   -2.2750 F   0  0  0  0  0  0  0  0  0  0  0  0
  -19.1950   -1.1300   -0.7370 F   0  0  0  0  0  0  0  0  0  0  0  0
   -9.7920   -3.7475   -2.8656 C   0  0  0  0  0  0  0  0  0  0  0  0
  -10.1387   -2.0206   -4.2903 C   0  0  0  0  0  0  0  0  0  0  0  0
  -10.1257   -4.6809   -3.9732 C   0  0  0  0  0  0  0  0  0  0  0  0
  -10.6121   -3.5280   -4.9891 C   0  0  0  0  0  0  0  0  0  0  0  0
  -11.1879   -3.5648   -6.1561 O   0  0  0  0  0  0  0  0  0  0  0  0
  -10.2449   -0.8742   -5.1244 C   0  0  0  0  0  0  0  0  0  0  0  0
  1  2  2  0
  2  3  1  0
  2 16  1  0
  3  4  1  0
  3  6  2  0
  4  5  1  0
  6  7  1  0
  7 15  1  0
  7  8  1  0
 11 12  1  0
 12 28  1  0
 12 27  1  0
 12 26  1  0
 15 16  1  0
 15 25  2  0
 16 17  1  0
 17 18  1  0
 18 19  1  0
 18 29  1  0
 18 30  1  0
 29 31  2  0
 30 32  1  0
 31 32  1  0
 32 33  2  0
 30 34  1  0
  8  9  2  0
  9 10  1  0
 10 11  2  0
 11 13  1  0
 13 14  2  0
 14  8  1  0
 19 20  2  0
 20 21  1  0
 21 22  2  0
 22 23  1  0
 23 24  2  0
 24 19  1  0
M  END

$$$$
No_9-gen_results_new/Mpro_new_generate_500/2024-01-19-21-58-56/
     RDKit          3D

 30 32  0  0  0  0  0  0  0  0999 V2000
   -9.1300   -2.9100    0.4520 O   0  0  0  0  0  0  0  0  0  0  0  0
  -10.2490   -2.6420    0.1800 C   0  0  0  0  0  0  0  0  0  0  0  0
  -11.3800   -3.0650    1.0860 C   0  0  0  0  0  0  0  0  0  0  0  0
  -11.2000   -3.8390    2.3880 C   0  0  0  0  0  0  0  0  0  0  0  0
  -10.9900   -5.0690    2.3420 N   0  0  0  0  0  0  0  0  0  0  0  0
  -12.7310   -2.7290    0.7330 N   0  0  0  0  0  0  0  0  0  0  0  0
  -12.9960   -1.9940   -0.4510 N   0  0  0  0  0  0  0  0  0  0  0  0
  -14.3580   -1.6940   -0.7530 C   0  0  0  0  0  0  0  0  0  0  0  0
  -15.0390   -0.7180   -0.0560 C   0  0  0  0  0  0  0  0  0  0  0  0
  -16.3510   -0.4690   -0.3980 C   0  0  0  0  0  0  0  0  0  0  0  0
  -16.9430   -1.2030   -1.4080 C   0  0  0  0  0  0  0  0  0  0  0  0
  -18.3840   -0.9560   -1.8060 C   0  0  0  0  0  0  0  0  0  0  0  0
  -16.2510   -2.1690   -2.1000 C   0  0  0  0  0  0  0  0  0  0  0  0
  -14.9490   -2.4160   -1.7590 C   0  0  0  0  0  0  0  0  0  0  0  0
  -11.9050   -1.5730   -1.3540 C   0  0  0  0  0  0  0  0  0  0  0  0
  -10.5280   -1.9050   -1.0240 N   0  0  0  0  0  0  0  0  0  0  0  0
   -9.4550   -1.4720   -1.9190 C   0  0  0  0  0  0  0  0  0  0  0  0
   -9.2820   -2.3940   -3.1270 C   0  0  0  0  0  0  0  0  0  0  0  0
   -7.8170   -2.5500   -3.5360 C   0  0  0  0  0  0  0  0  0  0  0  0
   -6.9720   -3.3210   -2.7550 C   0  0  0  0  0  0  0  0  0  0  0  0
   -5.6390   -3.4770   -3.1110 C   0  0  0  0  0  0  0  0  0  0  0  0
   -5.1940   -2.8390   -4.2640 C   0  0  0  0  0  0  0  0  0  0  0  0
   -6.0850   -2.0780   -5.0070 C   0  0  0  0  0  0  0  0  0  0  0  0
   -7.3470   -1.9600   -4.6270 N   0  0  0  0  0  0  0  0  0  0  0  0
  -12.1450   -0.9640   -2.3390 O   0  0  0  0  0  0  0  0  0  0  0  0
  -18.7610   -1.8760   -2.7390 F   0  0  0  0  0  0  0  0  0  0  0  0
  -18.4550    0.3250   -2.2750 F   0  0  0  0  0  0  0  0  0  0  0  0
  -19.1950   -1.1300   -0.7370 F   0  0  0  0  0  0  0  0  0  0  0  0
  -10.0453   -2.0069   -4.3181 C   0  0  0  0  0  0  0  0  0  0  0  0
   -9.7894   -3.7446   -2.8220 F   0  0  0  0  0  0  0  0  0  0  0  0
  1  2  2  0
  2  3  1  0
  2 16  1  0
  3  4  1  0
  3  6  2  0
  4  5  1  0
  6  7  1  0
  7 15  1  0
  7  8  1  0
 11 12  1  0
 12 28  1  0
 12 27  1  0
 12 26  1  0
 15 16  1  0
 15 25  2  0
 16 17  1  0
 17 18  1  0
 18 19  1  0
 18 29  1  0
 18 30  1  0
  8  9  2  0
  9 10  1  0
 10 11  2  0
 11 13  1  0
 13 14  2  0
 14  8  1  0
 19 20  2  0
 20 21  1  0
 21 22  2  0
 22 23  1  0
 23 24  2  0
 24 19  1  0
M  END

$$$$
No_10-gen_results_new/Mpro_new_generate_500/2024-01-19-21-58-56/
     RDKit          3D

 33 35  0  0  0  0  0  0  0  0999 V2000
   -9.1300   -2.9100    0.4520 O   0  0  0  0  0  0  0  0  0  0  0  0
  -10.2490   -2.6420    0.1800 C   0  0  0  0  0  0  0  0  0  0  0  0
  -11.3800   -3.0650    1.0860 C   0  0  0  0  0  0  0  0  0  0  0  0
  -11.2000   -3.8390    2.3880 C   0  0  0  0  0  0  0  0  0  0  0  0
  -10.9900   -5.0690    2.3420 N   0  0  0  0  0  0  0  0  0  0  0  0
  -12.7310   -2.7290    0.7330 N   0  0  0  0  0  0  0  0  0  0  0  0
  -12.9960   -1.9940   -0.4510 N   0  0  0  0  0  0  0  0  0  0  0  0
  -14.3580   -1.6940   -0.7530 C   0  0  0  0  0  0  0  0  0  0  0  0
  -15.0390   -0.7180   -0.0560 C   0  0  0  0  0  0  0  0  0  0  0  0
  -16.3510   -0.4690   -0.3980 C   0  0  0  0  0  0  0  0  0  0  0  0
  -16.9430   -1.2030   -1.4080 C   0  0  0  0  0  0  0  0  0  0  0  0
  -18.3840   -0.9560   -1.8060 C   0  0  0  0  0  0  0  0  0  0  0  0
  -16.2510   -2.1690   -2.1000 C   0  0  0  0  0  0  0  0  0  0  0  0
  -14.9490   -2.4160   -1.7590 C   0  0  0  0  0  0  0  0  0  0  0  0
  -11.9050   -1.5730   -1.3540 C   0  0  0  0  0  0  0  0  0  0  0  0
  -10.5280   -1.9050   -1.0240 N   0  0  0  0  0  0  0  0  0  0  0  0
   -9.4550   -1.4720   -1.9190 C   0  0  0  0  0  0  0  0  0  0  0  0
   -9.2820   -2.3940   -3.1270 C   0  0  0  0  0  0  0  0  0  0  0  0
   -7.8170   -2.5500   -3.5360 C   0  0  0  0  0  0  0  0  0  0  0  0
   -6.9720   -3.3210   -2.7550 C   0  0  0  0  0  0  0  0  0  0  0  0
   -5.6390   -3.4770   -3.1110 C   0  0  0  0  0  0  0  0  0  0  0  0
   -5.1940   -2.8390   -4.2640 C   0  0  0  0  0  0  0  0  0  0  0  0
   -6.0850   -2.0780   -5.0070 C   0  0  0  0  0  0  0  0  0  0  0  0
   -7.3470   -1.9600   -4.6270 N   0  0  0  0  0  0  0  0  0  0  0  0
  -12.1450   -0.9640   -2.3390 O   0  0  0  0  0  0  0  0  0  0  0  0
  -18.7610   -1.8760   -2.7390 F   0  0  0  0  0  0  0  0  0  0  0  0
  -18.4550    0.3250   -2.2750 F   0  0  0  0  0  0  0  0  0  0  0  0
  -19.1950   -1.1300   -0.7370 F   0  0  0  0  0  0  0  0  0  0  0  0
  -10.1467   -3.0903   -3.8357 C   0  0  0  0  0  0  0  0  0  0  0  0
  -10.1681   -2.5855   -3.6007 C   0  0  0  0  0  0  0  0  0  0  0  0
  -11.3342   -2.0464   -3.9986 O   0  0  0  0  0  0  0  0  0  0  0  0
  -10.2948   -3.5026   -4.4768 C   0  0  0  0  0  0  0  0  0  0  0  0
  -11.1345   -0.9491   -4.7919 C   0  0  0  0  0  0  0  0  0  0  0  0
  1  2  2  0
  2  3  1  0
  2 16  1  0
  3  4  1  0
  3  6  2  0
  4  5  1  0
  6  7  1  0
  7 15  1  0
  7  8  1  0
 11 12  1  0
 12 28  1  0
 12 27  1  0
 12 26  1  0
 15 16  1  0
 15 25  2  0
 16 17  1  0
 17 18  1  0
 18 19  1  0
 18 29  1  0
 29 30  1  0
 30 31  1  0
 29 32  1  0
 31 33  1  0
  8  9  2  0
  9 10  1  0
 10 11  2  0
 11 13  1  0
 13 14  2  0
 14  8  1  0
 19 20  2  0
 20 21  1  0
 21 22  2  0
 22 23  1  0
 23 24  2  0
 24 19  1  0
M  END

$$$$
No_11-gen_results_new/Mpro_new_generate_500/2024-01-19-21-58-56/
     RDKit          3D

 29 31  0  0  0  0  0  0  0  0999 V2000
   -9.1300   -2.9100    0.4520 O   0  0  0  0  0  0  0  0  0  0  0  0
  -10.2490   -2.6420    0.1800 C   0  0  0  0  0  0  0  0  0  0  0  0
  -11.3800   -3.0650    1.0860 C   0  0  0  0  0  0  0  0  0  0  0  0
  -11.2000   -3.8390    2.3880 C   0  0  0  0  0  0  0  0  0  0  0  0
  -10.9900   -5.0690    2.3420 N   0  0  0  0  0  0  0  0  0  0  0  0
  -12.7310   -2.7290    0.7330 N   0  0  0  0  0  0  0  0  0  0  0  0
  -12.9960   -1.9940   -0.4510 N   0  0  0  0  0  0  0  0  0  0  0  0
  -14.3580   -1.6940   -0.7530 C   0  0  0  0  0  0  0  0  0  0  0  0
  -15.0390   -0.7180   -0.0560 C   0  0  0  0  0  0  0  0  0  0  0  0
  -16.3510   -0.4690   -0.3980 C   0  0  0  0  0  0  0  0  0  0  0  0
  -16.9430   -1.2030   -1.4080 C   0  0  0  0  0  0  0  0  0  0  0  0
  -18.3840   -0.9560   -1.8060 C   0  0  0  0  0  0  0  0  0  0  0  0
  -16.2510   -2.1690   -2.1000 C   0  0  0  0  0  0  0  0  0  0  0  0
  -14.9490   -2.4160   -1.7590 C   0  0  0  0  0  0  0  0  0  0  0  0
  -11.9050   -1.5730   -1.3540 C   0  0  0  0  0  0  0  0  0  0  0  0
  -10.5280   -1.9050   -1.0240 N   0  0  0  0  0  0  0  0  0  0  0  0
   -9.4550   -1.4720   -1.9190 C   0  0  0  0  0  0  0  0  0  0  0  0
   -9.2820   -2.3940   -3.1270 C   0  0  0  0  0  0  0  0  0  0  0  0
   -7.8170   -2.5500   -3.5360 C   0  0  0  0  0  0  0  0  0  0  0  0
   -6.9720   -3.3210   -2.7550 C   0  0  0  0  0  0  0  0  0  0  0  0
   -5.6390   -3.4770   -3.1110 C   0  0  0  0  0  0  0  0  0  0  0  0
   -5.1940   -2.8390   -4.2640 C   0  0  0  0  0  0  0  0  0  0  0  0
   -6.0850   -2.0780   -5.0070 C   0  0  0  0  0  0  0  0  0  0  0  0
   -7.3470   -1.9600   -4.6270 N   0  0  0  0  0  0  0  0  0  0  0  0
  -12.1450   -0.9640   -2.3390 O   0  0  0  0  0  0  0  0  0  0  0  0
  -18.7610   -1.8760   -2.7390 F   0  0  0  0  0  0  0  0  0  0  0  0
  -18.4550    0.3250   -2.2750 F   0  0  0  0  0  0  0  0  0  0  0  0
  -19.1950   -1.1300   -0.7370 F   0  0  0  0  0  0  0  0  0  0  0  0
  -10.1467   -3.0903   -3.8357 C   0  0  0  0  0  0  0  0  0  0  0  0
  1  2  2  0
  2  3  1  0
  2 16  1  0
  3  4  1  0
  3  6  2  0
  4  5  1  0
  6  7  1  0
  7 15  1  0
  7  8  1  0
 11 12  1  0
 12 28  1  0
 12 27  1  0
 12 26  1  0
 15 16  1  0
 15 25  2  0
 16 17  1  0
 17 18  1  0
 18 19  1  0
 18 29  1  0
  8  9  2  0
  9 10  1  0
 10 11  2  0
 11 13  1  0
 13 14  2  0
 14  8  1  0
 19 20  2  0
 20 21  1  0
 21 22  2  0
 22 23  1  0
 23 24  2  0
 24 19  1  0
M  END

$$$$
No_12-gen_results_new/Mpro_new_generate_500/2024-01-19-21-58-56/
     RDKit          3D

 31 33  0  0  0  0  0  0  0  0999 V2000
   -9.1300   -2.9100    0.4520 O   0  0  0  0  0  0  0  0  0  0  0  0
  -10.2490   -2.6420    0.1800 C   0  0  0  0  0  0  0  0  0  0  0  0
  -11.3800   -3.0650    1.0860 C   0  0  0  0  0  0  0  0  0  0  0  0
  -11.2000   -3.8390    2.3880 C   0  0  0  0  0  0  0  0  0  0  0  0
  -10.9900   -5.0690    2.3420 N   0  0  0  0  0  0  0  0  0  0  0  0
  -12.7310   -2.7290    0.7330 N   0  0  0  0  0  0  0  0  0  0  0  0
  -12.9960   -1.9940   -0.4510 N   0  0  0  0  0  0  0  0  0  0  0  0
  -14.3580   -1.6940   -0.7530 C   0  0  0  0  0  0  0  0  0  0  0  0
  -15.0390   -0.7180   -0.0560 C   0  0  0  0  0  0  0  0  0  0  0  0
  -16.3510   -0.4690   -0.3980 C   0  0  0  0  0  0  0  0  0  0  0  0
  -16.9430   -1.2030   -1.4080 C   0  0  0  0  0  0  0  0  0  0  0  0
  -18.3840   -0.9560   -1.8060 C   0  0  0  0  0  0  0  0  0  0  0  0
  -16.2510   -2.1690   -2.1000 C   0  0  0  0  0  0  0  0  0  0  0  0
  -14.9490   -2.4160   -1.7590 C   0  0  0  0  0  0  0  0  0  0  0  0
  -11.9050   -1.5730   -1.3540 C   0  0  0  0  0  0  0  0  0  0  0  0
  -10.5280   -1.9050   -1.0240 N   0  0  0  0  0  0  0  0  0  0  0  0
   -9.4550   -1.4720   -1.9190 C   0  0  0  0  0  0  0  0  0  0  0  0
   -9.2820   -2.3940   -3.1270 C   0  0  0  0  0  0  0  0  0  0  0  0
   -7.8170   -2.5500   -3.5360 C   0  0  0  0  0  0  0  0  0  0  0  0
   -6.9720   -3.3210   -2.7550 C   0  0  0  0  0  0  0  0  0  0  0  0
   -5.6390   -3.4770   -3.1110 C   0  0  0  0  0  0  0  0  0  0  0  0
   -5.1940   -2.8390   -4.2640 C   0  0  0  0  0  0  0  0  0  0  0  0
   -6.0850   -2.0780   -5.0070 C   0  0  0  0  0  0  0  0  0  0  0  0
   -7.3470   -1.9600   -4.6270 N   0  0  0  0  0  0  0  0  0  0  0  0
  -12.1450   -0.9640   -2.3390 O   0  0  0  0  0  0  0  0  0  0  0  0
  -18.7610   -1.8760   -2.7390 F   0  0  0  0  0  0  0  0  0  0  0  0
  -18.4550    0.3250   -2.2750 F   0  0  0  0  0  0  0  0  0  0  0  0
  -19.1950   -1.1300   -0.7370 F   0  0  0  0  0  0  0  0  0  0  0  0
  -10.1467   -3.0903   -3.8357 C   0  0  0  0  0  0  0  0  0  0  0  0
  -10.1681   -2.5855   -3.6007 C   0  0  0  0  0  0  0  0  0  0  0  0
  -11.2324   -2.1698   -4.6132 C   0  0  0  0  0  0  0  0  0  0  0  0
  1  2  2  0
  2  3  1  0
  2 16  1  0
  3  4  1  0
  3  6  2  0
  4  5  1  0
  6  7  1  0
  7 15  1  0
  7  8  1  0
 11 12  1  0
 12 28  1  0
 12 27  1  0
 12 26  1  0
 15 16  1  0
 15 25  2  0
 16 17  1  0
 17 18  1  0
 18 19  1  0
 18 29  1  0
 29 30  1  0
 30 31  2  0
  8  9  2  0
  9 10  1  0
 10 11  2  0
 11 13  1  0
 13 14  2  0
 14  8  1  0
 19 20  2  0
 20 21  1  0
 21 22  2  0
 22 23  1  0
 23 24  2  0
 24 19  1  0
M  END

$$$$
No_13-gen_results_new/Mpro_new_generate_500/2024-01-19-21-58-56/
     RDKit          3D

 34 36  0  0  0  0  0  0  0  0999 V2000
   -9.1300   -2.9100    0.4520 O   0  0  0  0  0  0  0  0  0  0  0  0
  -10.2490   -2.6420    0.1800 C   0  0  0  0  0  0  0  0  0  0  0  0
  -11.3800   -3.0650    1.0860 C   0  0  0  0  0  0  0  0  0  0  0  0
  -11.2000   -3.8390    2.3880 C   0  0  0  0  0  0  0  0  0  0  0  0
  -10.9900   -5.0690    2.3420 N   0  0  0  0  0  0  0  0  0  0  0  0
  -12.7310   -2.7290    0.7330 N   0  0  0  0  0  0  0  0  0  0  0  0
  -12.9960   -1.9940   -0.4510 N   0  0  0  0  0  0  0  0  0  0  0  0
  -14.3580   -1.6940   -0.7530 C   0  0  0  0  0  0  0  0  0  0  0  0
  -15.0390   -0.7180   -0.0560 C   0  0  0  0  0  0  0  0  0  0  0  0
  -16.3510   -0.4690   -0.3980 C   0  0  0  0  0  0  0  0  0  0  0  0
  -16.9430   -1.2030   -1.4080 C   0  0  0  0  0  0  0  0  0  0  0  0
  -18.3840   -0.9560   -1.8060 C   0  0  0  0  0  0  0  0  0  0  0  0
  -16.2510   -2.1690   -2.1000 C   0  0  0  0  0  0  0  0  0  0  0  0
  -14.9490   -2.4160   -1.7590 C   0  0  0  0  0  0  0  0  0  0  0  0
  -11.9050   -1.5730   -1.3540 C   0  0  0  0  0  0  0  0  0  0  0  0
  -10.5280   -1.9050   -1.0240 N   0  0  0  0  0  0  0  0  0  0  0  0
   -9.4550   -1.4720   -1.9190 C   0  0  0  0  0  0  0  0  0  0  0  0
   -9.2820   -2.3940   -3.1270 C   0  0  0  0  0  0  0  0  0  0  0  0
   -7.8170   -2.5500   -3.5360 C   0  0  0  0  0  0  0  0  0  0  0  0
   -6.9720   -3.3210   -2.7550 C   0  0  0  0  0  0  0  0  0  0  0  0
   -5.6390   -3.4770   -3.1110 C   0  0  0  0  0  0  0  0  0  0  0  0
   -5.1940   -2.8390   -4.2640 C   0  0  0  0  0  0  0  0  0  0  0  0
   -6.0850   -2.0780   -5.0070 C   0  0  0  0  0  0  0  0  0  0  0  0
   -7.3470   -1.9600   -4.6270 N   0  0  0  0  0  0  0  0  0  0  0  0
  -12.1450   -0.9640   -2.3390 O   0  0  0  0  0  0  0  0  0  0  0  0
  -18.7610   -1.8760   -2.7390 F   0  0  0  0  0  0  0  0  0  0  0  0
  -18.4550    0.3250   -2.2750 F   0  0  0  0  0  0  0  0  0  0  0  0
  -19.1950   -1.1300   -0.7370 F   0  0  0  0  0  0  0  0  0  0  0  0
  -10.0453   -2.0069   -4.3181 C   0  0  0  0  0  0  0  0  0  0  0  0
   -9.8476   -3.8948   -2.8015 C   0  0  0  0  0  0  0  0  0  0  0  0
   -9.2607   -4.5187   -1.7349 F   0  0  0  0  0  0  0  0  0  0  0  0
   -9.6693   -4.7227   -3.8990 F   0  0  0  0  0  0  0  0  0  0  0  0
  -11.1760   -3.7629   -2.4625 F   0  0  0  0  0  0  0  0  0  0  0  0
  -16.7430   -3.0066   -3.1111 F   0  0  0  0  0  0  0  0  0  0  0  0
  1  2  2  0
  2  3  1  0
  2 16  1  0
  3  4  1  0
  3  6  2  0
  4  5  1  0
  6  7  1  0
  7 15  1  0
  7  8  1  0
 11 12  1  0
 12 28  1  0
 12 27  1  0
 12 26  1  0
 15 16  1  0
 15 25  2  0
 16 17  1  0
 17 18  1  0
 18 19  1  0
 18 29  1  0
 18 30  1  0
 30 31  1  0
 30 32  1  0
 30 33  1  0
 13 34  1  0
  8  9  2  0
  9 10  1  0
 10 11  2  0
 11 13  1  0
 13 14  2  0
 14  8  1  0
 19 20  2  0
 20 21  1  0
 21 22  2  0
 22 23  1  0
 23 24  2  0
 24 19  1  0
M  END

$$$$
No_14-gen_results_new/Mpro_new_generate_500/2024-01-19-21-58-56/
     RDKit          3D

 31 33  0  0  0  0  0  0  0  0999 V2000
   -9.1300   -2.9100    0.4520 O   0  0  0  0  0  0  0  0  0  0  0  0
  -10.2490   -2.6420    0.1800 C   0  0  0  0  0  0  0  0  0  0  0  0
  -11.3800   -3.0650    1.0860 C   0  0  0  0  0  0  0  0  0  0  0  0
  -11.2000   -3.8390    2.3880 C   0  0  0  0  0  0  0  0  0  0  0  0
  -10.9900   -5.0690    2.3420 N   0  0  0  0  0  0  0  0  0  0  0  0
  -12.7310   -2.7290    0.7330 N   0  0  0  0  0  0  0  0  0  0  0  0
  -12.9960   -1.9940   -0.4510 N   0  0  0  0  0  0  0  0  0  0  0  0
  -14.3580   -1.6940   -0.7530 C   0  0  0  0  0  0  0  0  0  0  0  0
  -15.0390   -0.7180   -0.0560 C   0  0  0  0  0  0  0  0  0  0  0  0
  -16.3510   -0.4690   -0.3980 C   0  0  0  0  0  0  0  0  0  0  0  0
  -16.9430   -1.2030   -1.4080 C   0  0  0  0  0  0  0  0  0  0  0  0
  -18.3840   -0.9560   -1.8060 C   0  0  0  0  0  0  0  0  0  0  0  0
  -16.2510   -2.1690   -2.1000 C   0  0  0  0  0  0  0  0  0  0  0  0
  -14.9490   -2.4160   -1.7590 C   0  0  0  0  0  0  0  0  0  0  0  0
  -11.9050   -1.5730   -1.3540 C   0  0  0  0  0  0  0  0  0  0  0  0
  -10.5280   -1.9050   -1.0240 N   0  0  0  0  0  0  0  0  0  0  0  0
   -9.4550   -1.4720   -1.9190 C   0  0  0  0  0  0  0  0  0  0  0  0
   -9.2820   -2.3940   -3.1270 C   0  0  0  0  0  0  0  0  0  0  0  0
   -7.8170   -2.5500   -3.5360 C   0  0  0  0  0  0  0  0  0  0  0  0
   -6.9720   -3.3210   -2.7550 C   0  0  0  0  0  0  0  0  0  0  0  0
   -5.6390   -3.4770   -3.1110 C   0  0  0  0  0  0  0  0  0  0  0  0
   -5.1940   -2.8390   -4.2640 C   0  0  0  0  0  0  0  0  0  0  0  0
   -6.0850   -2.0780   -5.0070 C   0  0  0  0  0  0  0  0  0  0  0  0
   -7.3470   -1.9600   -4.6270 N   0  0  0  0  0  0  0  0  0  0  0  0
  -12.1450   -0.9640   -2.3390 O   0  0  0  0  0  0  0  0  0  0  0  0
  -18.7610   -1.8760   -2.7390 F   0  0  0  0  0  0  0  0  0  0  0  0
  -18.4550    0.3250   -2.2750 F   0  0  0  0  0  0  0  0  0  0  0  0
  -19.1950   -1.1300   -0.7370 F   0  0  0  0  0  0  0  0  0  0  0  0
  -10.1467   -3.0903   -3.8357 C   0  0  0  0  0  0  0  0  0  0  0  0
  -10.1681   -2.5855   -3.6007 C   0  0  0  0  0  0  0  0  0  0  0  0
  -11.2324   -2.1698   -4.6132 C   0  0  0  0  0  0  0  0  0  0  0  0
  1  2  2  0
  2  3  1  0
  2 16  1  0
  3  4  1  0
  3  6  2  0
  4  5  1  0
  6  7  1  0
  7 15  1  0
  7  8  1  0
 11 12  1  0
 12 28  1  0
 12 27  1  0
 12 26  1  0
 15 16  1  0
 15 25  2  0
 16 17  1  0
 17 18  1  0
 18 19  1  0
 18 29  1  0
 29 30  1  0
 30 31  1  0
  8  9  2  0
  9 10  1  0
 10 11  2  0
 11 13  1  0
 13 14  2  0
 14  8  1  0
 19 20  2  0
 20 21  1  0
 21 22  2  0
 22 23  1  0
 23 24  2  0
 24 19  1  0
M  END

$$$$
No_15-gen_results_new/Mpro_new_generate_500/2024-01-19-21-58-56/
     RDKit          3D

 30 32  0  0  0  0  0  0  0  0999 V2000
   -9.1300   -2.9100    0.4520 O   0  0  0  0  0  0  0  0  0  0  0  0
  -10.2490   -2.6420    0.1800 C   0  0  0  0  0  0  0  0  0  0  0  0
  -11.3800   -3.0650    1.0860 C   0  0  0  0  0  0  0  0  0  0  0  0
  -11.2000   -3.8390    2.3880 C   0  0  0  0  0  0  0  0  0  0  0  0
  -10.9900   -5.0690    2.3420 N   0  0  0  0  0  0  0  0  0  0  0  0
  -12.7310   -2.7290    0.7330 N   0  0  0  0  0  0  0  0  0  0  0  0
  -12.9960   -1.9940   -0.4510 N   0  0  0  0  0  0  0  0  0  0  0  0
  -14.3580   -1.6940   -0.7530 C   0  0  0  0  0  0  0  0  0  0  0  0
  -15.0390   -0.7180   -0.0560 C   0  0  0  0  0  0  0  0  0  0  0  0
  -16.3510   -0.4690   -0.3980 C   0  0  0  0  0  0  0  0  0  0  0  0
  -16.9430   -1.2030   -1.4080 C   0  0  0  0  0  0  0  0  0  0  0  0
  -18.3840   -0.9560   -1.8060 C   0  0  0  0  0  0  0  0  0  0  0  0
  -16.2510   -2.1690   -2.1000 C   0  0  0  0  0  0  0  0  0  0  0  0
  -14.9490   -2.4160   -1.7590 C   0  0  0  0  0  0  0  0  0  0  0  0
  -11.9050   -1.5730   -1.3540 C   0  0  0  0  0  0  0  0  0  0  0  0
  -10.5280   -1.9050   -1.0240 N   0  0  0  0  0  0  0  0  0  0  0  0
   -9.4550   -1.4720   -1.9190 C   0  0  0  0  0  0  0  0  0  0  0  0
   -9.2820   -2.3940   -3.1270 C   0  0  0  0  0  0  0  0  0  0  0  0
   -7.8170   -2.5500   -3.5360 C   0  0  0  0  0  0  0  0  0  0  0  0
   -6.9720   -3.3210   -2.7550 C   0  0  0  0  0  0  0  0  0  0  0  0
   -5.6390   -3.4770   -3.1110 C   0  0  0  0  0  0  0  0  0  0  0  0
   -5.1940   -2.8390   -4.2640 C   0  0  0  0  0  0  0  0  0  0  0  0
   -6.0850   -2.0780   -5.0070 C   0  0  0  0  0  0  0  0  0  0  0  0
   -7.3470   -1.9600   -4.6270 N   0  0  0  0  0  0  0  0  0  0  0  0
  -12.1450   -0.9640   -2.3390 O   0  0  0  0  0  0  0  0  0  0  0  0
  -18.7610   -1.8760   -2.7390 F   0  0  0  0  0  0  0  0  0  0  0  0
  -18.4550    0.3250   -2.2750 F   0  0  0  0  0  0  0  0  0  0  0  0
  -19.1950   -1.1300   -0.7370 F   0  0  0  0  0  0  0  0  0  0  0  0
  -10.0899   -3.0088   -3.7244 O   0  0  0  0  0  0  0  0  0  0  0  0
  -16.9045   -3.2635   -3.3916 Cl  0  0  0  0  0  0  0  0  0  0  0  0
  1  2  2  0
  2  3  1  0
  2 16  1  0
  3  4  1  0
  3  6  2  0
  4  5  1  0
  6  7  1  0
  7 15  1  0
  7  8  1  0
 11 12  1  0
 12 28  1  0
 12 27  1  0
 12 26  1  0
 15 16  1  0
 15 25  2  0
 16 17  1  0
 17 18  1  0
 18 19  1  0
 18 29  2  0
 13 30  1  0
  8  9  2  0
  9 10  1  0
 10 11  2  0
 11 13  1  0
 13 14  2  0
 14  8  1  0
 19 20  2  0
 20 21  1  0
 21 22  2  0
 22 23  1  0
 23 24  2  0
 24 19  1  0
M  END

$$$$
No_16-gen_results_new/Mpro_new_generate_500/2024-01-19-21-58-56/
     RDKit          3D

 32 34  0  0  0  0  0  0  0  0999 V2000
   -9.1300   -2.9100    0.4520 O   0  0  0  0  0  0  0  0  0  0  0  0
  -10.2490   -2.6420    0.1800 C   0  0  0  0  0  0  0  0  0  0  0  0
  -11.3800   -3.0650    1.0860 C   0  0  0  0  0  0  0  0  0  0  0  0
  -11.2000   -3.8390    2.3880 C   0  0  0  0  0  0  0  0  0  0  0  0
  -10.9900   -5.0690    2.3420 N   0  0  0  0  0  0  0  0  0  0  0  0
  -12.7310   -2.7290    0.7330 N   0  0  0  0  0  0  0  0  0  0  0  0
  -12.9960   -1.9940   -0.4510 N   0  0  0  0  0  0  0  0  0  0  0  0
  -14.3580   -1.6940   -0.7530 C   0  0  0  0  0  0  0  0  0  0  0  0
  -15.0390   -0.7180   -0.0560 C   0  0  0  0  0  0  0  0  0  0  0  0
  -16.3510   -0.4690   -0.3980 C   0  0  0  0  0  0  0  0  0  0  0  0
  -16.9430   -1.2030   -1.4080 C   0  0  0  0  0  0  0  0  0  0  0  0
  -18.3840   -0.9560   -1.8060 C   0  0  0  0  0  0  0  0  0  0  0  0
  -16.2510   -2.1690   -2.1000 C   0  0  0  0  0  0  0  0  0  0  0  0
  -14.9490   -2.4160   -1.7590 C   0  0  0  0  0  0  0  0  0  0  0  0
  -11.9050   -1.5730   -1.3540 C   0  0  0  0  0  0  0  0  0  0  0  0
  -10.5280   -1.9050   -1.0240 N   0  0  0  0  0  0  0  0  0  0  0  0
   -9.4550   -1.4720   -1.9190 C   0  0  0  0  0  0  0  0  0  0  0  0
   -9.2820   -2.3940   -3.1270 C   0  0  0  0  0  0  0  0  0  0  0  0
   -7.8170   -2.5500   -3.5360 C   0  0  0  0  0  0  0  0  0  0  0  0
   -6.9720   -3.3210   -2.7550 C   0  0  0  0  0  0  0  0  0  0  0  0
   -5.6390   -3.4770   -3.1110 C   0  0  0  0  0  0  0  0  0  0  0  0
   -5.1940   -2.8390   -4.2640 C   0  0  0  0  0  0  0  0  0  0  0  0
   -6.0850   -2.0780   -5.0070 C   0  0  0  0  0  0  0  0  0  0  0  0
   -7.3470   -1.9600   -4.6270 N   0  0  0  0  0  0  0  0  0  0  0  0
  -12.1450   -0.9640   -2.3390 O   0  0  0  0  0  0  0  0  0  0  0  0
  -18.7610   -1.8760   -2.7390 F   0  0  0  0  0  0  0  0  0  0  0  0
  -18.4550    0.3250   -2.2750 F   0  0  0  0  0  0  0  0  0  0  0  0
  -19.1950   -1.1300   -0.7370 F   0  0  0  0  0  0  0  0  0  0  0  0
   -9.7920   -3.7475   -2.8656 C   0  0  0  0  0  0  0  0  0  0  0  0
  -10.0717   -1.8029   -4.3549 C   0  0  0  0  0  0  0  0  0  0  0  0
  -10.0419   -4.6597   -4.1091 C   0  0  0  0  0  0  0  0  0  0  0  0
   -9.7717   -6.4074   -3.7207 Cl  0  0  0  0  0  0  0  0  0  0  0  0
  1  2  2  0
  2  3  1  0
  2 16  1  0
  3  4  1  0
  3  6  2  0
  4  5  1  0
  6  7  1  0
  7 15  1  0
  7  8  1  0
 11 12  1  0
 12 28  1  0
 12 27  1  0
 12 26  1  0
 15 16  1  0
 15 25  2  0
 16 17  1  0
 17 18  1  0
 18 19  1  0
 18 29  1  0
 18 30  1  0
 29 31  2  3
 31 32  1  0
  8  9  2  0
  9 10  1  0
 10 11  2  0
 11 13  1  0
 13 14  2  0
 14  8  1  0
 19 20  2  0
 20 21  1  0
 21 22  2  0
 22 23  1  0
 23 24  2  0
 24 19  1  0
M  END

$$$$
No_17-gen_results_new/Mpro_new_generate_500/2024-01-19-21-58-56/
     RDKit          3D

 31 33  0  0  0  0  0  0  0  0999 V2000
   -9.1300   -2.9100    0.4520 O   0  0  0  0  0  0  0  0  0  0  0  0
  -10.2490   -2.6420    0.1800 C   0  0  0  0  0  0  0  0  0  0  0  0
  -11.3800   -3.0650    1.0860 C   0  0  0  0  0  0  0  0  0  0  0  0
  -11.2000   -3.8390    2.3880 C   0  0  0  0  0  0  0  0  0  0  0  0
  -10.9900   -5.0690    2.3420 N   0  0  0  0  0  0  0  0  0  0  0  0
  -12.7310   -2.7290    0.7330 N   0  0  0  0  0  0  0  0  0  0  0  0
  -12.9960   -1.9940   -0.4510 N   0  0  0  0  0  0  0  0  0  0  0  0
  -14.3580   -1.6940   -0.7530 C   0  0  0  0  0  0  0  0  0  0  0  0
  -15.0390   -0.7180   -0.0560 C   0  0  0  0  0  0  0  0  0  0  0  0
  -16.3510   -0.4690   -0.3980 C   0  0  0  0  0  0  0  0  0  0  0  0
  -16.9430   -1.2030   -1.4080 C   0  0  0  0  0  0  0  0  0  0  0  0
  -18.3840   -0.9560   -1.8060 C   0  0  0  0  0  0  0  0  0  0  0  0
  -16.2510   -2.1690   -2.1000 C   0  0  0  0  0  0  0  0  0  0  0  0
  -14.9490   -2.4160   -1.7590 C   0  0  0  0  0  0  0  0  0  0  0  0
  -11.9050   -1.5730   -1.3540 C   0  0  0  0  0  0  0  0  0  0  0  0
  -10.5280   -1.9050   -1.0240 N   0  0  0  0  0  0  0  0  0  0  0  0
   -9.4550   -1.4720   -1.9190 C   0  0  0  0  0  0  0  0  0  0  0  0
   -9.2820   -2.3940   -3.1270 C   0  0  0  0  0  0  0  0  0  0  0  0
   -7.8170   -2.5500   -3.5360 C   0  0  0  0  0  0  0  0  0  0  0  0
   -6.9720   -3.3210   -2.7550 C   0  0  0  0  0  0  0  0  0  0  0  0
   -5.6390   -3.4770   -3.1110 C   0  0  0  0  0  0  0  0  0  0  0  0
   -5.1940   -2.8390   -4.2640 C   0  0  0  0  0  0  0  0  0  0  0  0
   -6.0850   -2.0780   -5.0070 C   0  0  0  0  0  0  0  0  0  0  0  0
   -7.3470   -1.9600   -4.6270 N   0  0  0  0  0  0  0  0  0  0  0  0
  -12.1450   -0.9640   -2.3390 O   0  0  0  0  0  0  0  0  0  0  0  0
  -18.7610   -1.8760   -2.7390 F   0  0  0  0  0  0  0  0  0  0  0  0
  -18.4550    0.3250   -2.2750 F   0  0  0  0  0  0  0  0  0  0  0  0
  -19.1950   -1.1300   -0.7370 F   0  0  0  0  0  0  0  0  0  0  0  0
  -10.1861   -2.0270   -4.5221 S   0  0  0  0  0  0  0  0  0  0  0  0
  -11.4227   -2.6804   -4.2073 O   0  0  0  0  0  0  0  0  0  0  0  0
  -10.1457   -0.8098   -4.9966 O   0  0  0  0  0  0  0  0  0  0  0  0
  1  2  2  0
  2  3  1  0
  2 16  1  0
  3  4  1  0
  3  6  2  0
  4  5  1  0
  6  7  1  0
  7 15  1  0
  7  8  1  0
 11 12  1  0
 12 28  1  0
 12 27  1  0
 12 26  1  0
 15 16  1  0
 15 25  2  0
 16 17  1  0
 17 18  1  0
 18 19  1  0
 18 29  1  0
 29 30  2  0
 29 31  2  0
  8  9  2  0
  9 10  1  0
 10 11  2  0
 11 13  1  0
 13 14  2  0
 14  8  1  0
 19 20  2  0
 20 21  1  0
 21 22  2  0
 22 23  1  0
 23 24  2  0
 24 19  1  0
M  END

$$$$
No_18-gen_results_new/Mpro_new_generate_500/2024-01-19-21-58-56/
     RDKit          3D

 35 37  0  0  0  0  0  0  0  0999 V2000
   -9.1300   -2.9100    0.4520 O   0  0  0  0  0  0  0  0  0  0  0  0
  -10.2490   -2.6420    0.1800 C   0  0  0  0  0  0  0  0  0  0  0  0
  -11.3800   -3.0650    1.0860 C   0  0  0  0  0  0  0  0  0  0  0  0
  -11.2000   -3.8390    2.3880 C   0  0  0  0  0  0  0  0  0  0  0  0
  -10.9900   -5.0690    2.3420 N   0  0  0  0  0  0  0  0  0  0  0  0
  -12.7310   -2.7290    0.7330 N   0  0  0  0  0  0  0  0  0  0  0  0
  -12.9960   -1.9940   -0.4510 N   0  0  0  0  0  0  0  0  0  0  0  0
  -14.3580   -1.6940   -0.7530 C   0  0  0  0  0  0  0  0  0  0  0  0
  -15.0390   -0.7180   -0.0560 C   0  0  0  0  0  0  0  0  0  0  0  0
  -16.3510   -0.4690   -0.3980 C   0  0  0  0  0  0  0  0  0  0  0  0
  -16.9430   -1.2030   -1.4080 C   0  0  0  0  0  0  0  0  0  0  0  0
  -18.3840   -0.9560   -1.8060 C   0  0  0  0  0  0  0  0  0  0  0  0
  -16.2510   -2.1690   -2.1000 C   0  0  0  0  0  0  0  0  0  0  0  0
  -14.9490   -2.4160   -1.7590 C   0  0  0  0  0  0  0  0  0  0  0  0
  -11.9050   -1.5730   -1.3540 C   0  0  0  0  0  0  0  0  0  0  0  0
  -10.5280   -1.9050   -1.0240 N   0  0  0  0  0  0  0  0  0  0  0  0
   -9.4550   -1.4720   -1.9190 C   0  0  0  0  0  0  0  0  0  0  0  0
   -9.2820   -2.3940   -3.1270 C   0  0  0  0  0  0  0  0  0  0  0  0
   -7.8170   -2.5500   -3.5360 C   0  0  0  0  0  0  0  0  0  0  0  0
   -6.9720   -3.3210   -2.7550 C   0  0  0  0  0  0  0  0  0  0  0  0
   -5.6390   -3.4770   -3.1110 C   0  0  0  0  0  0  0  0  0  0  0  0
   -5.1940   -2.8390   -4.2640 C   0  0  0  0  0  0  0  0  0  0  0  0
   -6.0850   -2.0780   -5.0070 C   0  0  0  0  0  0  0  0  0  0  0  0
   -7.3470   -1.9600   -4.6270 N   0  0  0  0  0  0  0  0  0  0  0  0
  -12.1450   -0.9640   -2.3390 O   0  0  0  0  0  0  0  0  0  0  0  0
  -18.7610   -1.8760   -2.7390 F   0  0  0  0  0  0  0  0  0  0  0  0
  -18.4550    0.3250   -2.2750 F   0  0  0  0  0  0  0  0  0  0  0  0
  -19.1950   -1.1300   -0.7370 F   0  0  0  0  0  0  0  0  0  0  0  0
  -10.0899   -3.0088   -3.7244 O   0  0  0  0  0  0  0  0  0  0  0  0
  -16.7844   -3.0180   -3.1233 O   0  0  0  0  0  0  0  0  0  0  0  0
  -16.7281   -4.4242   -2.9973 C   0  0  0  0  0  0  0  0  0  0  0  0
  -15.4665   -4.7805   -3.9183 C   0  0  0  0  0  0  0  0  0  0  0  0
  -14.4476   -5.2576   -3.0139 N   0  0  0  0  0  0  0  0  0  0  0  0
  -15.4502   -5.1165   -5.0041 O   0  0  0  0  0  0  0  0  0  0  0  0
  -13.1216   -5.4156   -3.5595 C   0  0  0  0  0  0  0  0  0  0  0  0
  1  2  2  0
  2  3  1  0
  2 16  1  0
  3  4  1  0
  3  6  2  0
  4  5  1  0
  6  7  1  0
  7 15  1  0
  7  8  1  0
 11 12  1  0
 12 28  1  0
 12 27  1  0
 12 26  1  0
 15 16  1  0
 15 25  2  0
 16 17  1  0
 17 18  1  0
 18 19  1  0
 18 29  2  0
 13 30  1  0
 30 31  1  0
 31 32  1  0
 32 33  1  0
 32 34  2  0
 33 35  1  0
  8  9  2  0
  9 10  1  0
 10 11  2  0
 11 13  1  0
 13 14  2  0
 14  8  1  0
 19 20  2  0
 20 21  1  0
 21 22  2  0
 22 23  1  0
 23 24  2  0
 24 19  1  0
M  END

$$$$
No_19-gen_results_new/Mpro_new_generate_500/2024-01-19-21-58-56/
     RDKit          3D

 33 35  0  0  0  0  0  0  0  0999 V2000
   -9.1300   -2.9100    0.4520 O   0  0  0  0  0  0  0  0  0  0  0  0
  -10.2490   -2.6420    0.1800 C   0  0  0  0  0  0  0  0  0  0  0  0
  -11.3800   -3.0650    1.0860 C   0  0  0  0  0  0  0  0  0  0  0  0
  -11.2000   -3.8390    2.3880 C   0  0  0  0  0  0  0  0  0  0  0  0
  -10.9900   -5.0690    2.3420 N   0  0  0  0  0  0  0  0  0  0  0  0
  -12.7310   -2.7290    0.7330 N   0  0  0  0  0  0  0  0  0  0  0  0
  -12.9960   -1.9940   -0.4510 N   0  0  0  0  0  0  0  0  0  0  0  0
  -14.3580   -1.6940   -0.7530 C   0  0  0  0  0  0  0  0  0  0  0  0
  -15.0390   -0.7180   -0.0560 C   0  0  0  0  0  0  0  0  0  0  0  0
  -16.3510   -0.4690   -0.3980 C   0  0  0  0  0  0  0  0  0  0  0  0
  -16.9430   -1.2030   -1.4080 C   0  0  0  0  0  0  0  0  0  0  0  0
  -18.3840   -0.9560   -1.8060 C   0  0  0  0  0  0  0  0  0  0  0  0
  -16.2510   -2.1690   -2.1000 C   0  0  0  0  0  0  0  0  0  0  0  0
  -14.9490   -2.4160   -1.7590 C   0  0  0  0  0  0  0  0  0  0  0  0
  -11.9050   -1.5730   -1.3540 C   0  0  0  0  0  0  0  0  0  0  0  0
  -10.5280   -1.9050   -1.0240 N   0  0  0  0  0  0  0  0  0  0  0  0
   -9.4550   -1.4720   -1.9190 C   0  0  0  0  0  0  0  0  0  0  0  0
   -9.2820   -2.3940   -3.1270 C   0  0  0  0  0  0  0  0  0  0  0  0
   -7.8170   -2.5500   -3.5360 C   0  0  0  0  0  0  0  0  0  0  0  0
   -6.9720   -3.3210   -2.7550 C   0  0  0  0  0  0  0  0  0  0  0  0
   -5.6390   -3.4770   -3.1110 C   0  0  0  0  0  0  0  0  0  0  0  0
   -5.1940   -2.8390   -4.2640 C   0  0  0  0  0  0  0  0  0  0  0  0
   -6.0850   -2.0780   -5.0070 C   0  0  0  0  0  0  0  0  0  0  0  0
   -7.3470   -1.9600   -4.6270 N   0  0  0  0  0  0  0  0  0  0  0  0
  -12.1450   -0.9640   -2.3390 O   0  0  0  0  0  0  0  0  0  0  0  0
  -18.7610   -1.8760   -2.7390 F   0  0  0  0  0  0  0  0  0  0  0  0
  -18.4550    0.3250   -2.2750 F   0  0  0  0  0  0  0  0  0  0  0  0
  -19.1950   -1.1300   -0.7370 F   0  0  0  0  0  0  0  0  0  0  0  0
   -9.7920   -3.7475   -2.8656 C   0  0  0  0  0  0  0  0  0  0  0  0
  -10.0717   -1.8029   -4.3549 C   0  0  0  0  0  0  0  0  0  0  0  0
   -9.2616   -4.7965   -1.8772 S   0  0  0  0  0  0  0  0  0  0  0  0
   -8.4415   -5.6232   -2.8690 O   0  0  0  0  0  0  0  0  0  0  0  0
  -10.4446   -5.7129   -1.4692 O   0  0  0  0  0  0  0  0  0  0  0  0
  1  2  2  0
  2  3  1  0
  2 16  1  0
  3  4  1  0
  3  6  2  0
  4  5  1  0
  6  7  1  0
  7 15  1  0
  7  8  1  0
 11 12  1  0
 12 28  1  0
 12 27  1  0
 12 26  1  0
 15 16  1  0
 15 25  2  0
 16 17  1  0
 17 18  1  0
 18 19  1  0
 18 29  1  0
 18 30  1  0
 29 31  1  0
 31 32  2  0
 31 33  2  0
  8  9  2  0
  9 10  1  0
 10 11  2  0
 11 13  1  0
 13 14  2  0
 14  8  1  0
 19 20  2  0
 20 21  1  0
 21 22  2  0
 22 23  1  0
 23 24  2  0
 24 19  1  0
M  END

$$$$
No_20-gen_results_new/Mpro_new_generate_500/2024-01-19-21-58-56/
     RDKit          3D

 32 34  0  0  0  0  0  0  0  0999 V2000
   -9.1300   -2.9100    0.4520 O   0  0  0  0  0  0  0  0  0  0  0  0
  -10.2490   -2.6420    0.1800 C   0  0  0  0  0  0  0  0  0  0  0  0
  -11.3800   -3.0650    1.0860 C   0  0  0  0  0  0  0  0  0  0  0  0
  -11.2000   -3.8390    2.3880 C   0  0  0  0  0  0  0  0  0  0  0  0
  -10.9900   -5.0690    2.3420 N   0  0  0  0  0  0  0  0  0  0  0  0
  -12.7310   -2.7290    0.7330 N   0  0  0  0  0  0  0  0  0  0  0  0
  -12.9960   -1.9940   -0.4510 N   0  0  0  0  0  0  0  0  0  0  0  0
  -14.3580   -1.6940   -0.7530 C   0  0  0  0  0  0  0  0  0  0  0  0
  -15.0390   -0.7180   -0.0560 C   0  0  0  0  0  0  0  0  0  0  0  0
  -16.3510   -0.4690   -0.3980 C   0  0  0  0  0  0  0  0  0  0  0  0
  -16.9430   -1.2030   -1.4080 C   0  0  0  0  0  0  0  0  0  0  0  0
  -18.3840   -0.9560   -1.8060 C   0  0  0  0  0  0  0  0  0  0  0  0
  -16.2510   -2.1690   -2.1000 C   0  0  0  0  0  0  0  0  0  0  0  0
  -14.9490   -2.4160   -1.7590 C   0  0  0  0  0  0  0  0  0  0  0  0
  -11.9050   -1.5730   -1.3540 C   0  0  0  0  0  0  0  0  0  0  0  0
  -10.5280   -1.9050   -1.0240 N   0  0  0  0  0  0  0  0  0  0  0  0
   -9.4550   -1.4720   -1.9190 C   0  0  0  0  0  0  0  0  0  0  0  0
   -9.2820   -2.3940   -3.1270 C   0  0  0  0  0  0  0  0  0  0  0  0
   -7.8170   -2.5500   -3.5360 C   0  0  0  0  0  0  0  0  0  0  0  0
   -6.9720   -3.3210   -2.7550 C   0  0  0  0  0  0  0  0  0  0  0  0
   -5.6390   -3.4770   -3.1110 C   0  0  0  0  0  0  0  0  0  0  0  0
   -5.1940   -2.8390   -4.2640 C   0  0  0  0  0  0  0  0  0  0  0  0
   -6.0850   -2.0780   -5.0070 C   0  0  0  0  0  0  0  0  0  0  0  0
   -7.3470   -1.9600   -4.6270 N   0  0  0  0  0  0  0  0  0  0  0  0
  -12.1450   -0.9640   -2.3390 O   0  0  0  0  0  0  0  0  0  0  0  0
  -18.7610   -1.8760   -2.7390 F   0  0  0  0  0  0  0  0  0  0  0  0
  -18.4550    0.3250   -2.2750 F   0  0  0  0  0  0  0  0  0  0  0  0
  -19.1950   -1.1300   -0.7370 F   0  0  0  0  0  0  0  0  0  0  0  0
   -9.7920   -3.7475   -2.8656 C   0  0  0  0  0  0  0  0  0  0  0  0
  -10.2108   -1.7522   -4.5716 S   0  0  0  0  0  0  0  0  0  0  0  0
  -10.4781   -2.9634   -5.7133 C   0  0  0  0  0  0  0  0  0  0  0  0
  -11.4933   -1.4126   -3.9974 O   0  0  0  0  0  0  0  0  0  0  0  0
  1  2  2  0
  2  3  1  0
  2 16  1  0
  3  4  1  0
  3  6  2  0
  4  5  1  0
  6  7  1  0
  7 15  1  0
  7  8  1  0
 11 12  1  0
 12 28  1  0
 12 27  1  0
 12 26  1  0
 15 16  1  0
 15 25  2  0
 16 17  1  0
 17 18  1  0
 18 19  1  0
 18 29  1  0
 18 30  1  0
 30 31  1  0
 30 32  2  0
  8  9  2  0
  9 10  1  0
 10 11  2  0
 11 13  1  0
 13 14  2  0
 14  8  1  0
 19 20  2  0
 20 21  1  0
 21 22  2  0
 22 23  1  0
 23 24  2  0
 24 19  1  0
M  END

$$$$
No_21-gen_results_new/Mpro_new_generate_500/2024-01-19-21-58-56/
     RDKit          3D

 32 34  0  0  0  0  0  0  0  0999 V2000
   -9.1300   -2.9100    0.4520 O   0  0  0  0  0  0  0  0  0  0  0  0
  -10.2490   -2.6420    0.1800 C   0  0  0  0  0  0  0  0  0  0  0  0
  -11.3800   -3.0650    1.0860 C   0  0  0  0  0  0  0  0  0  0  0  0
  -11.2000   -3.8390    2.3880 C   0  0  0  0  0  0  0  0  0  0  0  0
  -10.9900   -5.0690    2.3420 N   0  0  0  0  0  0  0  0  0  0  0  0
  -12.7310   -2.7290    0.7330 N   0  0  0  0  0  0  0  0  0  0  0  0
  -12.9960   -1.9940   -0.4510 N   0  0  0  0  0  0  0  0  0  0  0  0
  -14.3580   -1.6940   -0.7530 C   0  0  0  0  0  0  0  0  0  0  0  0
  -15.0390   -0.7180   -0.0560 C   0  0  0  0  0  0  0  0  0  0  0  0
  -16.3510   -0.4690   -0.3980 C   0  0  0  0  0  0  0  0  0  0  0  0
  -16.9430   -1.2030   -1.4080 C   0  0  0  0  0  0  0  0  0  0  0  0
  -18.3840   -0.9560   -1.8060 C   0  0  0  0  0  0  0  0  0  0  0  0
  -16.2510   -2.1690   -2.1000 C   0  0  0  0  0  0  0  0  0  0  0  0
  -14.9490   -2.4160   -1.7590 C   0  0  0  0  0  0  0  0  0  0  0  0
  -11.9050   -1.5730   -1.3540 C   0  0  0  0  0  0  0  0  0  0  0  0
  -10.5280   -1.9050   -1.0240 N   0  0  0  0  0  0  0  0  0  0  0  0
   -9.4550   -1.4720   -1.9190 C   0  0  0  0  0  0  0  0  0  0  0  0
   -9.2820   -2.3940   -3.1270 C   0  0  0  0  0  0  0  0  0  0  0  0
   -7.8170   -2.5500   -3.5360 C   0  0  0  0  0  0  0  0  0  0  0  0
   -6.9720   -3.3210   -2.7550 C   0  0  0  0  0  0  0  0  0  0  0  0
   -5.6390   -3.4770   -3.1110 C   0  0  0  0  0  0  0  0  0  0  0  0
   -5.1940   -2.8390   -4.2640 C   0  0  0  0  0  0  0  0  0  0  0  0
   -6.0850   -2.0780   -5.0070 C   0  0  0  0  0  0  0  0  0  0  0  0
   -7.3470   -1.9600   -4.6270 N   0  0  0  0  0  0  0  0  0  0  0  0
  -12.1450   -0.9640   -2.3390 O   0  0  0  0  0  0  0  0  0  0  0  0
  -18.7610   -1.8760   -2.7390 F   0  0  0  0  0  0  0  0  0  0  0  0
  -18.4550    0.3250   -2.2750 F   0  0  0  0  0  0  0  0  0  0  0  0
  -19.1950   -1.1300   -0.7370 F   0  0  0  0  0  0  0  0  0  0  0  0
  -10.0453   -2.0069   -4.3181 C   0  0  0  0  0  0  0  0  0  0  0  0
   -9.9627   -4.1189   -2.7873 S   0  0  0  0  0  0  0  0  0  0  0  0
   -8.9664   -4.8641   -2.0798 O   0  0  0  0  0  0  0  0  0  0  0  0
  -10.5370   -5.0781   -4.3500 S   0  0  0  0  0  0  0  0  0  0  0  0
  1  2  2  0
  2  3  1  0
  2 16  1  0
  3  4  1  0
  3  6  2  0
  4  5  1  0
  6  7  1  0
  7 15  1  0
  7  8  1  0
 11 12  1  0
 12 28  1  0
 12 27  1  0
 12 26  1  0
 15 16  1  0
 15 25  2  0
 16 17  1  0
 17 18  1  0
 18 19  1  0
 18 29  1  0
 18 30  1  0
 30 31  2  0
 30 32  2  0
  8  9  2  0
  9 10  1  0
 10 11  2  0
 11 13  1  0
 13 14  2  0
 14  8  1  0
 19 20  2  0
 20 21  1  0
 21 22  2  0
 22 23  1  0
 23 24  2  0
 24 19  1  0
M  END

$$$$
No_22-gen_results_new/Mpro_new_generate_500/2024-01-19-21-58-56/
     RDKit          3D

 34 36  0  0  0  0  0  0  0  0999 V2000
   -9.1300   -2.9100    0.4520 O   0  0  0  0  0  0  0  0  0  0  0  0
  -10.2490   -2.6420    0.1800 C   0  0  0  0  0  0  0  0  0  0  0  0
  -11.3800   -3.0650    1.0860 C   0  0  0  0  0  0  0  0  0  0  0  0
  -11.2000   -3.8390    2.3880 C   0  0  0  0  0  0  0  0  0  0  0  0
  -10.9900   -5.0690    2.3420 N   0  0  0  0  0  0  0  0  0  0  0  0
  -12.7310   -2.7290    0.7330 N   0  0  0  0  0  0  0  0  0  0  0  0
  -12.9960   -1.9940   -0.4510 N   0  0  0  0  0  0  0  0  0  0  0  0
  -14.3580   -1.6940   -0.7530 C   0  0  0  0  0  0  0  0  0  0  0  0
  -15.0390   -0.7180   -0.0560 C   0  0  0  0  0  0  0  0  0  0  0  0
  -16.3510   -0.4690   -0.3980 C   0  0  0  0  0  0  0  0  0  0  0  0
  -16.9430   -1.2030   -1.4080 C   0  0  0  0  0  0  0  0  0  0  0  0
  -18.3840   -0.9560   -1.8060 C   0  0  0  0  0  0  0  0  0  0  0  0
  -16.2510   -2.1690   -2.1000 C   0  0  0  0  0  0  0  0  0  0  0  0
  -14.9490   -2.4160   -1.7590 C   0  0  0  0  0  0  0  0  0  0  0  0
  -11.9050   -1.5730   -1.3540 C   0  0  0  0  0  0  0  0  0  0  0  0
  -10.5280   -1.9050   -1.0240 N   0  0  0  0  0  0  0  0  0  0  0  0
   -9.4550   -1.4720   -1.9190 C   0  0  0  0  0  0  0  0  0  0  0  0
   -9.2820   -2.3940   -3.1270 C   0  0  0  0  0  0  0  0  0  0  0  0
   -7.8170   -2.5500   -3.5360 C   0  0  0  0  0  0  0  0  0  0  0  0
   -6.9720   -3.3210   -2.7550 C   0  0  0  0  0  0  0  0  0  0  0  0
   -5.6390   -3.4770   -3.1110 C   0  0  0  0  0  0  0  0  0  0  0  0
   -5.1940   -2.8390   -4.2640 C   0  0  0  0  0  0  0  0  0  0  0  0
   -6.0850   -2.0780   -5.0070 C   0  0  0  0  0  0  0  0  0  0  0  0
   -7.3470   -1.9600   -4.6270 N   0  0  0  0  0  0  0  0  0  0  0  0
  -12.1450   -0.9640   -2.3390 O   0  0  0  0  0  0  0  0  0  0  0  0
  -18.7610   -1.8760   -2.7390 F   0  0  0  0  0  0  0  0  0  0  0  0
  -18.4550    0.3250   -2.2750 F   0  0  0  0  0  0  0  0  0  0  0  0
  -19.1950   -1.1300   -0.7370 F   0  0  0  0  0  0  0  0  0  0  0  0
  -10.1467   -3.0903   -3.8357 C   0  0  0  0  0  0  0  0  0  0  0  0
  -10.1176   -2.2481   -3.6828 S   0  0  0  0  0  0  0  0  0  0  0  0
  -10.5091   -1.1860   -5.0635 C   0  0  0  0  0  0  0  0  0  0  0  0
  -11.2836   -2.8251   -3.4384 O   0  0  0  0  0  0  0  0  0  0  0  0
   -9.8815   -1.9993   -5.3901 C   0  0  0  0  0  0  0  0  0  0  0  0
  -10.6909   -2.8893   -6.3577 C   0  0  0  0  0  0  0  0  0  0  0  0
  1  2  2  0
  2  3  1  0
  2 16  1  0
  3  4  1  0
  3  6  2  0
  4  5  1  0
  6  7  1  0
  7 15  1  0
  7  8  1  0
 11 12  1  0
 12 28  1  0
 12 27  1  0
 12 26  1  0
 15 16  1  0
 15 25  2  0
 16 17  1  0
 17 18  1  0
 18 19  1  0
 18 29  1  0
 18 30  1  0
 30 31  1  0
 30 32  2  0
 31 33  2  3
 33 34  1  0
  8  9  2  0
  9 10  1  0
 10 11  2  0
 11 13  1  0
 13 14  2  0
 14  8  1  0
 19 20  2  0
 20 21  1  0
 21 22  2  0
 22 23  1  0
 23 24  2  0
 24 19  1  0
M  END

$$$$
No_23-gen_results_new/Mpro_new_generate_500/2024-01-19-21-58-56/
     RDKit          3D

 33 35  0  0  0  0  0  0  0  0999 V2000
   -9.1300   -2.9100    0.4520 O   0  0  0  0  0  0  0  0  0  0  0  0
  -10.2490   -2.6420    0.1800 C   0  0  0  0  0  0  0  0  0  0  0  0
  -11.3800   -3.0650    1.0860 C   0  0  0  0  0  0  0  0  0  0  0  0
  -11.2000   -3.8390    2.3880 C   0  0  0  0  0  0  0  0  0  0  0  0
  -10.9900   -5.0690    2.3420 N   0  0  0  0  0  0  0  0  0  0  0  0
  -12.7310   -2.7290    0.7330 N   0  0  0  0  0  0  0  0  0  0  0  0
  -12.9960   -1.9940   -0.4510 N   0  0  0  0  0  0  0  0  0  0  0  0
  -14.3580   -1.6940   -0.7530 C   0  0  0  0  0  0  0  0  0  0  0  0
  -15.0390   -0.7180   -0.0560 C   0  0  0  0  0  0  0  0  0  0  0  0
  -16.3510   -0.4690   -0.3980 C   0  0  0  0  0  0  0  0  0  0  0  0
  -16.9430   -1.2030   -1.4080 C   0  0  0  0  0  0  0  0  0  0  0  0
  -18.3840   -0.9560   -1.8060 C   0  0  0  0  0  0  0  0  0  0  0  0
  -16.2510   -2.1690   -2.1000 C   0  0  0  0  0  0  0  0  0  0  0  0
  -14.9490   -2.4160   -1.7590 C   0  0  0  0  0  0  0  0  0  0  0  0
  -11.9050   -1.5730   -1.3540 C   0  0  0  0  0  0  0  0  0  0  0  0
  -10.5280   -1.9050   -1.0240 N   0  0  0  0  0  0  0  0  0  0  0  0
   -9.4550   -1.4720   -1.9190 C   0  0  0  0  0  0  0  0  0  0  0  0
   -9.2820   -2.3940   -3.1270 C   0  0  0  0  0  0  0  0  0  0  0  0
   -7.8170   -2.5500   -3.5360 C   0  0  0  0  0  0  0  0  0  0  0  0
   -6.9720   -3.3210   -2.7550 C   0  0  0  0  0  0  0  0  0  0  0  0
   -5.6390   -3.4770   -3.1110 C   0  0  0  0  0  0  0  0  0  0  0  0
   -5.1940   -2.8390   -4.2640 C   0  0  0  0  0  0  0  0  0  0  0  0
   -6.0850   -2.0780   -5.0070 C   0  0  0  0  0  0  0  0  0  0  0  0
   -7.3470   -1.9600   -4.6270 N   0  0  0  0  0  0  0  0  0  0  0  0
  -12.1450   -0.9640   -2.3390 O   0  0  0  0  0  0  0  0  0  0  0  0
  -18.7610   -1.8760   -2.7390 F   0  0  0  0  0  0  0  0  0  0  0  0
  -18.4550    0.3250   -2.2750 F   0  0  0  0  0  0  0  0  0  0  0  0
  -19.1950   -1.1300   -0.7370 F   0  0  0  0  0  0  0  0  0  0  0  0
  -10.1467   -3.0903   -3.8357 C   0  0  0  0  0  0  0  0  0  0  0  0
  -10.1748   -2.6832   -3.5186 O   0  0  0  0  0  0  0  0  0  0  0  0
  -10.9209   -2.9106   -4.7569 S   0  0  0  0  0  0  0  0  0  0  0  0
  -10.4167   -3.6182   -6.0464 C   0  0  0  0  0  0  0  0  0  0  0  0
  -12.3319   -3.6136   -4.5331 O   0  0  0  0  0  0  0  0  0  0  0  0
  1  2  2  0
  2  3  1  0
  2 16  1  0
  3  4  1  0
  3  6  2  0
  4  5  1  0
  6  7  1  0
  7 15  1  0
  7  8  1  0
 11 12  1  0
 12 28  1  0
 12 27  1  0
 12 26  1  0
 15 16  1  0
 15 25  2  0
 16 17  1  0
 17 18  1  0
 18 19  1  0
 18 29  1  0
 29 30  1  0
 30 31  1  0
 31 32  1  0
 31 33  2  0
  8  9  2  0
  9 10  1  0
 10 11  2  0
 11 13  1  0
 13 14  2  0
 14  8  1  0
 19 20  2  0
 20 21  1  0
 21 22  2  0
 22 23  1  0
 23 24  2  0
 24 19  1  0
M  END

$$$$
No_24-gen_results_new/Mpro_new_generate_500/2024-01-19-21-58-56/
     RDKit          3D

 35 37  0  0  0  0  0  0  0  0999 V2000
   -9.1300   -2.9100    0.4520 O   0  0  0  0  0  0  0  0  0  0  0  0
  -10.2490   -2.6420    0.1800 C   0  0  0  0  0  0  0  0  0  0  0  0
  -11.3800   -3.0650    1.0860 C   0  0  0  0  0  0  0  0  0  0  0  0
  -11.2000   -3.8390    2.3880 C   0  0  0  0  0  0  0  0  0  0  0  0
  -10.9900   -5.0690    2.3420 N   0  0  0  0  0  0  0  0  0  0  0  0
  -12.7310   -2.7290    0.7330 N   0  0  0  0  0  0  0  0  0  0  0  0
  -12.9960   -1.9940   -0.4510 N   0  0  0  0  0  0  0  0  0  0  0  0
  -14.3580   -1.6940   -0.7530 C   0  0  0  0  0  0  0  0  0  0  0  0
  -15.0390   -0.7180   -0.0560 C   0  0  0  0  0  0  0  0  0  0  0  0
  -16.3510   -0.4690   -0.3980 C   0  0  0  0  0  0  0  0  0  0  0  0
  -16.9430   -1.2030   -1.4080 C   0  0  0  0  0  0  0  0  0  0  0  0
  -18.3840   -0.9560   -1.8060 C   0  0  0  0  0  0  0  0  0  0  0  0
  -16.2510   -2.1690   -2.1000 C   0  0  0  0  0  0  0  0  0  0  0  0
  -14.9490   -2.4160   -1.7590 C   0  0  0  0  0  0  0  0  0  0  0  0
  -11.9050   -1.5730   -1.3540 C   0  0  0  0  0  0  0  0  0  0  0  0
  -10.5280   -1.9050   -1.0240 N   0  0  0  0  0  0  0  0  0  0  0  0
   -9.4550   -1.4720   -1.9190 C   0  0  0  0  0  0  0  0  0  0  0  0
   -9.2820   -2.3940   -3.1270 C   0  0  0  0  0  0  0  0  0  0  0  0
   -7.8170   -2.5500   -3.5360 C   0  0  0  0  0  0  0  0  0  0  0  0
   -6.9720   -3.3210   -2.7550 C   0  0  0  0  0  0  0  0  0  0  0  0
   -5.6390   -3.4770   -3.1110 C   0  0  0  0  0  0  0  0  0  0  0  0
   -5.1940   -2.8390   -4.2640 C   0  0  0  0  0  0  0  0  0  0  0  0
   -6.0850   -2.0780   -5.0070 C   0  0  0  0  0  0  0  0  0  0  0  0
   -7.3470   -1.9600   -4.6270 N   0  0  0  0  0  0  0  0  0  0  0  0
  -12.1450   -0.9640   -2.3390 O   0  0  0  0  0  0  0  0  0  0  0  0
  -18.7610   -1.8760   -2.7390 F   0  0  0  0  0  0  0  0  0  0  0  0
  -18.4550    0.3250   -2.2750 F   0  0  0  0  0  0  0  0  0  0  0  0
  -19.1950   -1.1300   -0.7370 F   0  0  0  0  0  0  0  0  0  0  0  0
  -10.0453   -2.0069   -4.3181 C   0  0  0  0  0  0  0  0  0  0  0  0
   -9.8476   -3.8948   -2.8015 C   0  0  0  0  0  0  0  0  0  0  0  0
  -10.8670   -3.9285   -2.9143 O   0  0  0  0  0  0  0  0  0  0  0  0
   -9.3566   -4.6088   -1.6213 C   0  0  0  0  0  0  0  0  0  0  0  0
   -8.8250   -5.8667   -2.3867 C   0  0  0  0  0  0  0  0  0  0  0  0
   -9.0419   -6.3259   -3.5607 C   0  0  0  0  0  0  0  0  0  0  0  0
   -8.0695   -7.4417   -3.9900 C   0  0  0  0  0  0  0  0  0  0  0  0
  1  2  2  0
  2  3  1  0
  2 16  1  0
  3  4  1  0
  3  6  2  0
  4  5  1  0
  6  7  1  0
  7 15  1  0
  7  8  1  0
 11 12  1  0
 12 28  1  0
 12 27  1  0
 12 26  1  0
 15 16  1  0
 15 25  2  0
 16 17  1  0
 17 18  1  0
 18 19  1  0
 18 29  1  0
 18 30  1  0
 30 31  2  0
 30 32  1  0
 32 33  1  0
 33 34  2  3
 34 35  1  0
  8  9  2  0
  9 10  1  0
 10 11  2  0
 11 13  1  0
 13 14  2  0
 14  8  1  0
 19 20  2  0
 20 21  1  0
 21 22  2  0
 22 23  1  0
 23 24  2  0
 24 19  1  0
M  END

$$$$
No_25-gen_results_new/Mpro_new_generate_500/2024-01-19-21-58-56/
     RDKit          3D

 32 34  0  0  0  0  0  0  0  0999 V2000
   -9.1300   -2.9100    0.4520 O   0  0  0  0  0  0  0  0  0  0  0  0
  -10.2490   -2.6420    0.1800 C   0  0  0  0  0  0  0  0  0  0  0  0
  -11.3800   -3.0650    1.0860 C   0  0  0  0  0  0  0  0  0  0  0  0
  -11.2000   -3.8390    2.3880 C   0  0  0  0  0  0  0  0  0  0  0  0
  -10.9900   -5.0690    2.3420 N   0  0  0  0  0  0  0  0  0  0  0  0
  -12.7310   -2.7290    0.7330 N   0  0  0  0  0  0  0  0  0  0  0  0
  -12.9960   -1.9940   -0.4510 N   0  0  0  0  0  0  0  0  0  0  0  0
  -14.3580   -1.6940   -0.7530 C   0  0  0  0  0  0  0  0  0  0  0  0
  -15.0390   -0.7180   -0.0560 C   0  0  0  0  0  0  0  0  0  0  0  0
  -16.3510   -0.4690   -0.3980 C   0  0  0  0  0  0  0  0  0  0  0  0
  -16.9430   -1.2030   -1.4080 C   0  0  0  0  0  0  0  0  0  0  0  0
  -18.3840   -0.9560   -1.8060 C   0  0  0  0  0  0  0  0  0  0  0  0
  -16.2510   -2.1690   -2.1000 C   0  0  0  0  0  0  0  0  0  0  0  0
  -14.9490   -2.4160   -1.7590 C   0  0  0  0  0  0  0  0  0  0  0  0
  -11.9050   -1.5730   -1.3540 C   0  0  0  0  0  0  0  0  0  0  0  0
  -10.5280   -1.9050   -1.0240 N   0  0  0  0  0  0  0  0  0  0  0  0
   -9.4550   -1.4720   -1.9190 C   0  0  0  0  0  0  0  0  0  0  0  0
   -9.2820   -2.3940   -3.1270 C   0  0  0  0  0  0  0  0  0  0  0  0
   -7.8170   -2.5500   -3.5360 C   0  0  0  0  0  0  0  0  0  0  0  0
   -6.9720   -3.3210   -2.7550 C   0  0  0  0  0  0  0  0  0  0  0  0
   -5.6390   -3.4770   -3.1110 C   0  0  0  0  0  0  0  0  0  0  0  0
   -5.1940   -2.8390   -4.2640 C   0  0  0  0  0  0  0  0  0  0  0  0
   -6.0850   -2.0780   -5.0070 C   0  0  0  0  0  0  0  0  0  0  0  0
   -7.3470   -1.9600   -4.6270 N   0  0  0  0  0  0  0  0  0  0  0  0
  -12.1450   -0.9640   -2.3390 O   0  0  0  0  0  0  0  0  0  0  0  0
  -18.7610   -1.8760   -2.7390 F   0  0  0  0  0  0  0  0  0  0  0  0
  -18.4550    0.3250   -2.2750 F   0  0  0  0  0  0  0  0  0  0  0  0
  -19.1950   -1.1300   -0.7370 F   0  0  0  0  0  0  0  0  0  0  0  0
   -9.7920   -3.7475   -2.8656 C   0  0  0  0  0  0  0  0  0  0  0  0
  -10.0717   -1.8029   -4.3549 C   0  0  0  0  0  0  0  0  0  0  0  0
   -9.2295   -4.7877   -2.1591 C   0  0  0  0  0  0  0  0  0  0  0  0
  -11.0128   -4.1073   -3.3007 O   0  0  0  0  0  0  0  0  0  0  0  0
  1  2  2  0
  2  3  1  0
  2 16  1  0
  3  4  1  0
  3  6  2  0
  4  5  1  0
  6  7  1  0
  7 15  1  0
  7  8  1  0
 11 12  1  0
 12 28  1  0
 12 27  1  0
 12 26  1  0
 15 16  1  0
 15 25  2  0
 16 17  1  0
 17 18  1  0
 18 19  1  0
 18 29  1  0
 18 30  1  0
 29 31  1  0
 29 32  2  0
  8  9  2  0
  9 10  1  0
 10 11  2  0
 11 13  1  0
 13 14  2  0
 14  8  1  0
 19 20  2  0
 20 21  1  0
 21 22  2  0
 22 23  1  0
 23 24  2  0
 24 19  1  0
M  END

$$$$
No_26-gen_results_new/Mpro_new_generate_500/2024-01-19-21-58-56/
     RDKit          3D

 34 37  0  0  0  0  0  0  0  0999 V2000
   -9.1300   -2.9100    0.4520 O   0  0  0  0  0  0  0  0  0  0  0  0
  -10.2490   -2.6420    0.1800 C   0  0  0  0  0  0  0  0  0  0  0  0
  -11.3800   -3.0650    1.0860 C   0  0  0  0  0  0  0  0  0  0  0  0
  -11.2000   -3.8390    2.3880 C   0  0  0  0  0  0  0  0  0  0  0  0
  -10.9900   -5.0690    2.3420 N   0  0  0  0  0  0  0  0  0  0  0  0
  -12.7310   -2.7290    0.7330 N   0  0  0  0  0  0  0  0  0  0  0  0
  -12.9960   -1.9940   -0.4510 N   0  0  0  0  0  0  0  0  0  0  0  0
  -14.3580   -1.6940   -0.7530 C   0  0  0  0  0  0  0  0  0  0  0  0
  -15.0390   -0.7180   -0.0560 C   0  0  0  0  0  0  0  0  0  0  0  0
  -16.3510   -0.4690   -0.3980 C   0  0  0  0  0  0  0  0  0  0  0  0
  -16.9430   -1.2030   -1.4080 C   0  0  0  0  0  0  0  0  0  0  0  0
  -18.3840   -0.9560   -1.8060 C   0  0  0  0  0  0  0  0  0  0  0  0
  -16.2510   -2.1690   -2.1000 C   0  0  0  0  0  0  0  0  0  0  0  0
  -14.9490   -2.4160   -1.7590 C   0  0  0  0  0  0  0  0  0  0  0  0
  -11.9050   -1.5730   -1.3540 C   0  0  0  0  0  0  0  0  0  0  0  0
  -10.5280   -1.9050   -1.0240 N   0  0  0  0  0  0  0  0  0  0  0  0
   -9.4550   -1.4720   -1.9190 C   0  0  0  0  0  0  0  0  0  0  0  0
   -9.2820   -2.3940   -3.1270 C   0  0  0  0  0  0  0  0  0  0  0  0
   -7.8170   -2.5500   -3.5360 C   0  0  0  0  0  0  0  0  0  0  0  0
   -6.9720   -3.3210   -2.7550 C   0  0  0  0  0  0  0  0  0  0  0  0
   -5.6390   -3.4770   -3.1110 C   0  0  0  0  0  0  0  0  0  0  0  0
   -5.1940   -2.8390   -4.2640 C   0  0  0  0  0  0  0  0  0  0  0  0
   -6.0850   -2.0780   -5.0070 C   0  0  0  0  0  0  0  0  0  0  0  0
   -7.3470   -1.9600   -4.6270 N   0  0  0  0  0  0  0  0  0  0  0  0
  -12.1450   -0.9640   -2.3390 O   0  0  0  0  0  0  0  0  0  0  0  0
  -18.7610   -1.8760   -2.7390 F   0  0  0  0  0  0  0  0  0  0  0  0
  -18.4550    0.3250   -2.2750 F   0  0  0  0  0  0  0  0  0  0  0  0
  -19.1950   -1.1300   -0.7370 F   0  0  0  0  0  0  0  0  0  0  0  0
  -10.0453   -2.0069   -4.3181 C   0  0  0  0  0  0  0  0  0  0  0  0
   -9.8476   -3.8948   -2.8015 C   0  0  0  0  0  0  0  0  0  0  0  0
   -9.1680   -4.8526   -2.1325 C   0  0  0  0  0  0  0  0  0  0  0  0
  -11.1809   -4.2918   -3.1683 C   0  0  0  0  0  0  0  0  0  0  0  0
   -9.8814   -4.6111   -3.5726 C   0  0  0  0  0  0  0  0  0  0  0  0
   -9.7335   -3.9581   -1.4019 C   0  0  0  0  0  0  0  0  0  0  0  0
  1  2  2  0
  2  3  1  0
  2 16  1  0
  3  4  1  0
  3  6  2  0
  4  5  1  0
  6  7  1  0
  7 15  1  0
  7  8  1  0
 11 12  1  0
 12 28  1  0
 12 27  1  0
 12 26  1  0
 15 16  1  0
 15 25  2  0
 16 17  1  0
 17 18  1  0
 18 19  1  0
 18 29  1  0
 18 30  1  0
 30 31  1  0
 30 32  1  0
 31 33  1  0
 32 33  1  0
 31 34  1  0
  8  9  2  0
  9 10  1  0
 10 11  2  0
 11 13  1  0
 13 14  2  0
 14  8  1  0
 19 20  2  0
 20 21  1  0
 21 22  2  0
 22 23  1  0
 23 24  2  0
 24 19  1  0
M  END

$$$$
No_27-gen_results_new/Mpro_new_generate_500/2024-01-19-21-58-56/
     RDKit          3D

 34 36  0  0  0  0  0  0  0  0999 V2000
   -9.1300   -2.9100    0.4520 O   0  0  0  0  0  0  0  0  0  0  0  0
  -10.2490   -2.6420    0.1800 C   0  0  0  0  0  0  0  0  0  0  0  0
  -11.3800   -3.0650    1.0860 C   0  0  0  0  0  0  0  0  0  0  0  0
  -11.2000   -3.8390    2.3880 C   0  0  0  0  0  0  0  0  0  0  0  0
  -10.9900   -5.0690    2.3420 N   0  0  0  0  0  0  0  0  0  0  0  0
  -12.7310   -2.7290    0.7330 N   0  0  0  0  0  0  0  0  0  0  0  0
  -12.9960   -1.9940   -0.4510 N   0  0  0  0  0  0  0  0  0  0  0  0
  -14.3580   -1.6940   -0.7530 C   0  0  0  0  0  0  0  0  0  0  0  0
  -15.0390   -0.7180   -0.0560 C   0  0  0  0  0  0  0  0  0  0  0  0
  -16.3510   -0.4690   -0.3980 C   0  0  0  0  0  0  0  0  0  0  0  0
  -16.9430   -1.2030   -1.4080 C   0  0  0  0  0  0  0  0  0  0  0  0
  -18.3840   -0.9560   -1.8060 C   0  0  0  0  0  0  0  0  0  0  0  0
  -16.2510   -2.1690   -2.1000 C   0  0  0  0  0  0  0  0  0  0  0  0
  -14.9490   -2.4160   -1.7590 C   0  0  0  0  0  0  0  0  0  0  0  0
  -11.9050   -1.5730   -1.3540 C   0  0  0  0  0  0  0  0  0  0  0  0
  -10.5280   -1.9050   -1.0240 N   0  0  0  0  0  0  0  0  0  0  0  0
   -9.4550   -1.4720   -1.9190 C   0  0  0  0  0  0  0  0  0  0  0  0
   -9.2820   -2.3940   -3.1270 C   0  0  0  0  0  0  0  0  0  0  0  0
   -7.8170   -2.5500   -3.5360 C   0  0  0  0  0  0  0  0  0  0  0  0
   -6.9720   -3.3210   -2.7550 C   0  0  0  0  0  0  0  0  0  0  0  0
   -5.6390   -3.4770   -3.1110 C   0  0  0  0  0  0  0  0  0  0  0  0
   -5.1940   -2.8390   -4.2640 C   0  0  0  0  0  0  0  0  0  0  0  0
   -6.0850   -2.0780   -5.0070 C   0  0  0  0  0  0  0  0  0  0  0  0
   -7.3470   -1.9600   -4.6270 N   0  0  0  0  0  0  0  0  0  0  0  0
  -12.1450   -0.9640   -2.3390 O   0  0  0  0  0  0  0  0  0  0  0  0
  -18.7610   -1.8760   -2.7390 F   0  0  0  0  0  0  0  0  0  0  0  0
  -18.4550    0.3250   -2.2750 F   0  0  0  0  0  0  0  0  0  0  0  0
  -19.1950   -1.1300   -0.7370 F   0  0  0  0  0  0  0  0  0  0  0  0
   -9.7920   -3.7475   -2.8656 C   0  0  0  0  0  0  0  0  0  0  0  0
  -10.0717   -1.8029   -4.3549 C   0  0  0  0  0  0  0  0  0  0  0  0
   -9.2616   -4.7965   -1.8772 S   0  0  0  0  0  0  0  0  0  0  0  0
  -10.3497   -5.8231   -1.5978 O   0  0  0  0  0  0  0  0  0  0  0  0
   -8.5272   -4.4655   -0.7715 O   0  0  0  0  0  0  0  0  0  0  0  0
   -8.1825   -6.0126   -2.8765 C   0  0  0  0  0  0  0  0  0  0  0  0
  1  2  2  0
  2  3  1  0
  2 16  1  0
  3  4  1  0
  3  6  2  0
  4  5  1  0
  6  7  1  0
  7 15  1  0
  7  8  1  0
 11 12  1  0
 12 28  1  0
 12 27  1  0
 12 26  1  0
 15 16  1  0
 15 25  2  0
 16 17  1  0
 17 18  1  0
 18 19  1  0
 18 29  1  0
 18 30  1  0
 29 31  1  0
 31 32  2  0
 31 33  2  0
 31 34  1  0
  8  9  2  0
  9 10  1  0
 10 11  2  0
 11 13  1  0
 13 14  2  0
 14  8  1  0
 19 20  2  0
 20 21  1  0
 21 22  2  0
 22 23  1  0
 23 24  2  0
 24 19  1  0
M  END

$$$$
No_28-gen_results_new/Mpro_new_generate_500/2024-01-19-21-58-56/
     RDKit          3D

 34 36  0  0  0  0  0  0  0  0999 V2000
   -9.1300   -2.9100    0.4520 O   0  0  0  0  0  0  0  0  0  0  0  0
  -10.2490   -2.6420    0.1800 C   0  0  0  0  0  0  0  0  0  0  0  0
  -11.3800   -3.0650    1.0860 C   0  0  0  0  0  0  0  0  0  0  0  0
  -11.2000   -3.8390    2.3880 C   0  0  0  0  0  0  0  0  0  0  0  0
  -10.9900   -5.0690    2.3420 N   0  0  0  0  0  0  0  0  0  0  0  0
  -12.7310   -2.7290    0.7330 N   0  0  0  0  0  0  0  0  0  0  0  0
  -12.9960   -1.9940   -0.4510 N   0  0  0  0  0  0  0  0  0  0  0  0
  -14.3580   -1.6940   -0.7530 C   0  0  0  0  0  0  0  0  0  0  0  0
  -15.0390   -0.7180   -0.0560 C   0  0  0  0  0  0  0  0  0  0  0  0
  -16.3510   -0.4690   -0.3980 C   0  0  0  0  0  0  0  0  0  0  0  0
  -16.9430   -1.2030   -1.4080 C   0  0  0  0  0  0  0  0  0  0  0  0
  -18.3840   -0.9560   -1.8060 C   0  0  0  0  0  0  0  0  0  0  0  0
  -16.2510   -2.1690   -2.1000 C   0  0  0  0  0  0  0  0  0  0  0  0
  -14.9490   -2.4160   -1.7590 C   0  0  0  0  0  0  0  0  0  0  0  0
  -11.9050   -1.5730   -1.3540 C   0  0  0  0  0  0  0  0  0  0  0  0
  -10.5280   -1.9050   -1.0240 N   0  0  0  0  0  0  0  0  0  0  0  0
   -9.4550   -1.4720   -1.9190 C   0  0  0  0  0  0  0  0  0  0  0  0
   -9.2820   -2.3940   -3.1270 C   0  0  0  0  0  0  0  0  0  0  0  0
   -7.8170   -2.5500   -3.5360 C   0  0  0  0  0  0  0  0  0  0  0  0
   -6.9720   -3.3210   -2.7550 C   0  0  0  0  0  0  0  0  0  0  0  0
   -5.6390   -3.4770   -3.1110 C   0  0  0  0  0  0  0  0  0  0  0  0
   -5.1940   -2.8390   -4.2640 C   0  0  0  0  0  0  0  0  0  0  0  0
   -6.0850   -2.0780   -5.0070 C   0  0  0  0  0  0  0  0  0  0  0  0
   -7.3470   -1.9600   -4.6270 N   0  0  0  0  0  0  0  0  0  0  0  0
  -12.1450   -0.9640   -2.3390 O   0  0  0  0  0  0  0  0  0  0  0  0
  -18.7610   -1.8760   -2.7390 F   0  0  0  0  0  0  0  0  0  0  0  0
  -18.4550    0.3250   -2.2750 F   0  0  0  0  0  0  0  0  0  0  0  0
  -19.1950   -1.1300   -0.7370 F   0  0  0  0  0  0  0  0  0  0  0  0
  -10.0453   -2.0069   -4.3181 C   0  0  0  0  0  0  0  0  0  0  0  0
   -9.8476   -3.8948   -2.8015 C   0  0  0  0  0  0  0  0  0  0  0  0
  -10.1714   -4.7331   -3.9309 C   0  0  0  0  0  0  0  0  0  0  0  0
  -10.1294   -6.3217   -3.4652 S   0  0  0  0  0  0  0  0  0  0  0  0
  -10.9441   -6.9977   -2.7638 O   0  0  0  0  0  0  0  0  0  0  0  0
   -9.7563   -7.0275   -4.7793 O   0  0  0  0  0  0  0  0  0  0  0  0
  1  2  2  0
  2  3  1  0
  2 16  1  0
  3  4  1  0
  3  6  2  0
  4  5  1  0
  6  7  1  0
  7 15  1  0
  7  8  1  0
 11 12  1  0
 12 28  1  0
 12 27  1  0
 12 26  1  0
 15 16  1  0
 15 25  2  0
 16 17  1  0
 17 18  1  0
 18 19  1  0
 18 29  1  0
 18 30  1  0
 30 31  2  3
 31 32  1  0
 32 33  2  0
 32 34  2  0
  8  9  2  0
  9 10  1  0
 10 11  2  0
 11 13  1  0
 13 14  2  0
 14  8  1  0
 19 20  2  0
 20 21  1  0
 21 22  2  0
 22 23  1  0
 23 24  2  0
 24 19  1  0
M  END

$$$$
No_29-gen_results_new/Mpro_new_generate_500/2024-01-19-21-58-56/
     RDKit          3D

 32 34  0  0  0  0  0  0  0  0999 V2000
   -9.1300   -2.9100    0.4520 O   0  0  0  0  0  0  0  0  0  0  0  0
  -10.2490   -2.6420    0.1800 C   0  0  0  0  0  0  0  0  0  0  0  0
  -11.3800   -3.0650    1.0860 C   0  0  0  0  0  0  0  0  0  0  0  0
  -11.2000   -3.8390    2.3880 C   0  0  0  0  0  0  0  0  0  0  0  0
  -10.9900   -5.0690    2.3420 N   0  0  0  0  0  0  0  0  0  0  0  0
  -12.7310   -2.7290    0.7330 N   0  0  0  0  0  0  0  0  0  0  0  0
  -12.9960   -1.9940   -0.4510 N   0  0  0  0  0  0  0  0  0  0  0  0
  -14.3580   -1.6940   -0.7530 C   0  0  0  0  0  0  0  0  0  0  0  0
  -15.0390   -0.7180   -0.0560 C   0  0  0  0  0  0  0  0  0  0  0  0
  -16.3510   -0.4690   -0.3980 C   0  0  0  0  0  0  0  0  0  0  0  0
  -16.9430   -1.2030   -1.4080 C   0  0  0  0  0  0  0  0  0  0  0  0
  -18.3840   -0.9560   -1.8060 C   0  0  0  0  0  0  0  0  0  0  0  0
  -16.2510   -2.1690   -2.1000 C   0  0  0  0  0  0  0  0  0  0  0  0
  -14.9490   -2.4160   -1.7590 C   0  0  0  0  0  0  0  0  0  0  0  0
  -11.9050   -1.5730   -1.3540 C   0  0  0  0  0  0  0  0  0  0  0  0
  -10.5280   -1.9050   -1.0240 N   0  0  0  0  0  0  0  0  0  0  0  0
   -9.4550   -1.4720   -1.9190 C   0  0  0  0  0  0  0  0  0  0  0  0
   -9.2820   -2.3940   -3.1270 C   0  0  0  0  0  0  0  0  0  0  0  0
   -7.8170   -2.5500   -3.5360 C   0  0  0  0  0  0  0  0  0  0  0  0
   -6.9720   -3.3210   -2.7550 C   0  0  0  0  0  0  0  0  0  0  0  0
   -5.6390   -3.4770   -3.1110 C   0  0  0  0  0  0  0  0  0  0  0  0
   -5.1940   -2.8390   -4.2640 C   0  0  0  0  0  0  0  0  0  0  0  0
   -6.0850   -2.0780   -5.0070 C   0  0  0  0  0  0  0  0  0  0  0  0
   -7.3470   -1.9600   -4.6270 N   0  0  0  0  0  0  0  0  0  0  0  0
  -12.1450   -0.9640   -2.3390 O   0  0  0  0  0  0  0  0  0  0  0  0
  -18.7610   -1.8760   -2.7390 F   0  0  0  0  0  0  0  0  0  0  0  0
  -18.4550    0.3250   -2.2750 F   0  0  0  0  0  0  0  0  0  0  0  0
  -19.1950   -1.1300   -0.7370 F   0  0  0  0  0  0  0  0  0  0  0  0
  -10.0899   -3.0088   -3.7244 O   0  0  0  0  0  0  0  0  0  0  0  0
  -16.8846   -3.3106   -3.3817 S   0  0  0  0  0  0  0  0  0  0  0  0
  -16.6541   -4.9086   -2.5895 C   0  0  0  0  0  0  0  0  0  0  0  0
  -18.4700   -3.2628   -3.4184 O   0  0  0  0  0  0  0  0  0  0  0  0
  1  2  2  0
  2  3  1  0
  2 16  1  0
  3  4  1  0
  3  6  2  0
  4  5  1  0
  6  7  1  0
  7 15  1  0
  7  8  1  0
 11 12  1  0
 12 28  1  0
 12 27  1  0
 12 26  1  0
 15 16  1  0
 15 25  2  0
 16 17  1  0
 17 18  1  0
 18 19  1  0
 18 29  2  0
 13 30  1  0
 30 31  1  0
 30 32  2  0
  8  9  2  0
  9 10  1  0
 10 11  2  0
 11 13  1  0
 13 14  2  0
 14  8  1  0
 19 20  2  0
 20 21  1  0
 21 22  2  0
 22 23  1  0
 23 24  2  0
 24 19  1  0
M  END

$$$$
No_30-gen_results_new/Mpro_new_generate_500/2024-01-19-21-58-56/
     RDKit          3D

 33 35  0  0  0  0  0  0  0  0999 V2000
   -9.1300   -2.9100    0.4520 O   0  0  0  0  0  0  0  0  0  0  0  0
  -10.2490   -2.6420    0.1800 C   0  0  0  0  0  0  0  0  0  0  0  0
  -11.3800   -3.0650    1.0860 C   0  0  0  0  0  0  0  0  0  0  0  0
  -11.2000   -3.8390    2.3880 C   0  0  0  0  0  0  0  0  0  0  0  0
  -10.9900   -5.0690    2.3420 N   0  0  0  0  0  0  0  0  0  0  0  0
  -12.7310   -2.7290    0.7330 N   0  0  0  0  0  0  0  0  0  0  0  0
  -12.9960   -1.9940   -0.4510 N   0  0  0  0  0  0  0  0  0  0  0  0
  -14.3580   -1.6940   -0.7530 C   0  0  0  0  0  0  0  0  0  0  0  0
  -15.0390   -0.7180   -0.0560 C   0  0  0  0  0  0  0  0  0  0  0  0
  -16.3510   -0.4690   -0.3980 C   0  0  0  0  0  0  0  0  0  0  0  0
  -16.9430   -1.2030   -1.4080 C   0  0  0  0  0  0  0  0  0  0  0  0
  -18.3840   -0.9560   -1.8060 C   0  0  0  0  0  0  0  0  0  0  0  0
  -16.2510   -2.1690   -2.1000 C   0  0  0  0  0  0  0  0  0  0  0  0
  -14.9490   -2.4160   -1.7590 C   0  0  0  0  0  0  0  0  0  0  0  0
  -11.9050   -1.5730   -1.3540 C   0  0  0  0  0  0  0  0  0  0  0  0
  -10.5280   -1.9050   -1.0240 N   0  0  0  0  0  0  0  0  0  0  0  0
   -9.4550   -1.4720   -1.9190 C   0  0  0  0  0  0  0  0  0  0  0  0
   -9.2820   -2.3940   -3.1270 C   0  0  0  0  0  0  0  0  0  0  0  0
   -7.8170   -2.5500   -3.5360 C   0  0  0  0  0  0  0  0  0  0  0  0
   -6.9720   -3.3210   -2.7550 C   0  0  0  0  0  0  0  0  0  0  0  0
   -5.6390   -3.4770   -3.1110 C   0  0  0  0  0  0  0  0  0  0  0  0
   -5.1940   -2.8390   -4.2640 C   0  0  0  0  0  0  0  0  0  0  0  0
   -6.0850   -2.0780   -5.0070 C   0  0  0  0  0  0  0  0  0  0  0  0
   -7.3470   -1.9600   -4.6270 N   0  0  0  0  0  0  0  0  0  0  0  0
  -12.1450   -0.9640   -2.3390 O   0  0  0  0  0  0  0  0  0  0  0  0
  -18.7610   -1.8760   -2.7390 F   0  0  0  0  0  0  0  0  0  0  0  0
  -18.4550    0.3250   -2.2750 F   0  0  0  0  0  0  0  0  0  0  0  0
  -19.1950   -1.1300   -0.7370 F   0  0  0  0  0  0  0  0  0  0  0  0
   -9.7920   -3.7475   -2.8656 C   0  0  0  0  0  0  0  0  0  0  0  0
  -10.0717   -1.8029   -4.3549 C   0  0  0  0  0  0  0  0  0  0  0  0
  -10.8816   -4.2900   -3.6532 C   0  0  0  0  0  0  0  0  0  0  0  0
  -11.9295   -4.8982   -3.0431 F   0  0  0  0  0  0  0  0  0  0  0  0
  -11.4278   -3.6925   -4.6525 F   0  0  0  0  0  0  0  0  0  0  0  0
  1  2  2  0
  2  3  1  0
  2 16  1  0
  3  4  1  0
  3  6  2  0
  4  5  1  0
  6  7  1  0
  7 15  1  0
  7  8  1  0
 11 12  1  0
 12 28  1  0
 12 27  1  0
 12 26  1  0
 15 16  1  0
 15 25  2  0
 16 17  1  0
 17 18  1  0
 18 19  1  0
 18 29  1  0
 18 30  1  0
 29 31  2  3
 31 32  1  0
 31 33  1  0
  8  9  2  0
  9 10  1  0
 10 11  2  0
 11 13  1  0
 13 14  2  0
 14  8  1  0
 19 20  2  0
 20 21  1  0
 21 22  2  0
 22 23  1  0
 23 24  2  0
 24 19  1  0
M  END

$$$$
No_31-gen_results_new/Mpro_new_generate_500/2024-01-19-21-58-56/
     RDKit          3D

 32 34  0  0  0  0  0  0  0  0999 V2000
   -9.1300   -2.9100    0.4520 O   0  0  0  0  0  0  0  0  0  0  0  0
  -10.2490   -2.6420    0.1800 C   0  0  0  0  0  0  0  0  0  0  0  0
  -11.3800   -3.0650    1.0860 C   0  0  0  0  0  0  0  0  0  0  0  0
  -11.2000   -3.8390    2.3880 C   0  0  0  0  0  0  0  0  0  0  0  0
  -10.9900   -5.0690    2.3420 N   0  0  0  0  0  0  0  0  0  0  0  0
  -12.7310   -2.7290    0.7330 N   0  0  0  0  0  0  0  0  0  0  0  0
  -12.9960   -1.9940   -0.4510 N   0  0  0  0  0  0  0  0  0  0  0  0
  -14.3580   -1.6940   -0.7530 C   0  0  0  0  0  0  0  0  0  0  0  0
  -15.0390   -0.7180   -0.0560 C   0  0  0  0  0  0  0  0  0  0  0  0
  -16.3510   -0.4690   -0.3980 C   0  0  0  0  0  0  0  0  0  0  0  0
  -16.9430   -1.2030   -1.4080 C   0  0  0  0  0  0  0  0  0  0  0  0
  -18.3840   -0.9560   -1.8060 C   0  0  0  0  0  0  0  0  0  0  0  0
  -16.2510   -2.1690   -2.1000 C   0  0  0  0  0  0  0  0  0  0  0  0
  -14.9490   -2.4160   -1.7590 C   0  0  0  0  0  0  0  0  0  0  0  0
  -11.9050   -1.5730   -1.3540 C   0  0  0  0  0  0  0  0  0  0  0  0
  -10.5280   -1.9050   -1.0240 N   0  0  0  0  0  0  0  0  0  0  0  0
   -9.4550   -1.4720   -1.9190 C   0  0  0  0  0  0  0  0  0  0  0  0
   -9.2820   -2.3940   -3.1270 C   0  0  0  0  0  0  0  0  0  0  0  0
   -7.8170   -2.5500   -3.5360 C   0  0  0  0  0  0  0  0  0  0  0  0
   -6.9720   -3.3210   -2.7550 C   0  0  0  0  0  0  0  0  0  0  0  0
   -5.6390   -3.4770   -3.1110 C   0  0  0  0  0  0  0  0  0  0  0  0
   -5.1940   -2.8390   -4.2640 C   0  0  0  0  0  0  0  0  0  0  0  0
   -6.0850   -2.0780   -5.0070 C   0  0  0  0  0  0  0  0  0  0  0  0
   -7.3470   -1.9600   -4.6270 N   0  0  0  0  0  0  0  0  0  0  0  0
  -12.1450   -0.9640   -2.3390 O   0  0  0  0  0  0  0  0  0  0  0  0
  -18.7610   -1.8760   -2.7390 F   0  0  0  0  0  0  0  0  0  0  0  0
  -18.4550    0.3250   -2.2750 F   0  0  0  0  0  0  0  0  0  0  0  0
  -19.1950   -1.1300   -0.7370 F   0  0  0  0  0  0  0  0  0  0  0  0
   -9.9397   -3.9796   -2.9011 S   0  0  0  0  0  0  0  0  0  0  0  0
   -9.9424   -4.6555   -4.5783 C   0  0  0  0  0  0  0  0  0  0  0  0
   -9.3899   -4.8338   -2.0455 O   0  0  0  0  0  0  0  0  0  0  0  0
  -11.4886   -3.8345   -2.7558 O   0  0  0  0  0  0  0  0  0  0  0  0
  1  2  2  0
  2  3  1  0
  2 16  1  0
  3  4  1  0
  3  6  2  0
  4  5  1  0
  6  7  1  0
  7 15  1  0
  7  8  1  0
 11 12  1  0
 12 28  1  0
 12 27  1  0
 12 26  1  0
 15 16  1  0
 15 25  2  0
 16 17  1  0
 17 18  1  0
 18 19  1  0
 18 29  1  0
 29 30  1  0
 29 31  2  0
 29 32  2  0
  8  9  2  0
  9 10  1  0
 10 11  2  0
 11 13  1  0
 13 14  2  0
 14  8  1  0
 19 20  2  0
 20 21  1  0
 21 22  2  0
 22 23  1  0
 23 24  2  0
 24 19  1  0
M  END

$$$$
No_32-gen_results_new/Mpro_new_generate_500/2024-01-19-21-58-56/
     RDKit          3D

 35 37  0  0  0  0  0  0  0  0999 V2000
   -9.1300   -2.9100    0.4520 O   0  0  0  0  0  0  0  0  0  0  0  0
  -10.2490   -2.6420    0.1800 C   0  0  0  0  0  0  0  0  0  0  0  0
  -11.3800   -3.0650    1.0860 C   0  0  0  0  0  0  0  0  0  0  0  0
  -11.2000   -3.8390    2.3880 C   0  0  0  0  0  0  0  0  0  0  0  0
  -10.9900   -5.0690    2.3420 N   0  0  0  0  0  0  0  0  0  0  0  0
  -12.7310   -2.7290    0.7330 N   0  0  0  0  0  0  0  0  0  0  0  0
  -12.9960   -1.9940   -0.4510 N   0  0  0  0  0  0  0  0  0  0  0  0
  -14.3580   -1.6940   -0.7530 C   0  0  0  0  0  0  0  0  0  0  0  0
  -15.0390   -0.7180   -0.0560 C   0  0  0  0  0  0  0  0  0  0  0  0
  -16.3510   -0.4690   -0.3980 C   0  0  0  0  0  0  0  0  0  0  0  0
  -16.9430   -1.2030   -1.4080 C   0  0  0  0  0  0  0  0  0  0  0  0
  -18.3840   -0.9560   -1.8060 C   0  0  0  0  0  0  0  0  0  0  0  0
  -16.2510   -2.1690   -2.1000 C   0  0  0  0  0  0  0  0  0  0  0  0
  -14.9490   -2.4160   -1.7590 C   0  0  0  0  0  0  0  0  0  0  0  0
  -11.9050   -1.5730   -1.3540 C   0  0  0  0  0  0  0  0  0  0  0  0
  -10.5280   -1.9050   -1.0240 N   0  0  0  0  0  0  0  0  0  0  0  0
   -9.4550   -1.4720   -1.9190 C   0  0  0  0  0  0  0  0  0  0  0  0
   -9.2820   -2.3940   -3.1270 C   0  0  0  0  0  0  0  0  0  0  0  0
   -7.8170   -2.5500   -3.5360 C   0  0  0  0  0  0  0  0  0  0  0  0
   -6.9720   -3.3210   -2.7550 C   0  0  0  0  0  0  0  0  0  0  0  0
   -5.6390   -3.4770   -3.1110 C   0  0  0  0  0  0  0  0  0  0  0  0
   -5.1940   -2.8390   -4.2640 C   0  0  0  0  0  0  0  0  0  0  0  0
   -6.0850   -2.0780   -5.0070 C   0  0  0  0  0  0  0  0  0  0  0  0
   -7.3470   -1.9600   -4.6270 N   0  0  0  0  0  0  0  0  0  0  0  0
  -12.1450   -0.9640   -2.3390 O   0  0  0  0  0  0  0  0  0  0  0  0
  -18.7610   -1.8760   -2.7390 F   0  0  0  0  0  0  0  0  0  0  0  0
  -18.4550    0.3250   -2.2750 F   0  0  0  0  0  0  0  0  0  0  0  0
  -19.1950   -1.1300   -0.7370 F   0  0  0  0  0  0  0  0  0  0  0  0
   -9.7920   -3.7475   -2.8656 C   0  0  0  0  0  0  0  0  0  0  0  0
  -10.0268   -1.9037   -4.2201 F   0  0  0  0  0  0  0  0  0  0  0  0
   -9.7674   -4.7763   -4.0487 C   0  0  0  0  0  0  0  0  0  0  0  0
   -8.8928   -5.5984   -3.8345 O   0  0  0  0  0  0  0  0  0  0  0  0
  -10.7799   -4.8566   -5.0211 C   0  0  0  0  0  0  0  0  0  0  0  0
   -8.7864   -6.4970   -2.8583 C   0  0  0  0  0  0  0  0  0  0  0  0
   -7.5512   -6.3347   -2.0126 C   0  0  0  0  0  0  0  0  0  0  0  0
  1  2  2  0
  2  3  1  0
  2 16  1  0
  3  4  1  0
  3  6  2  0
  4  5  1  0
  6  7  1  0
  7 15  1  0
  7  8  1  0
 11 12  1  0
 12 28  1  0
 12 27  1  0
 12 26  1  0
 15 16  1  0
 15 25  2  0
 16 17  1  0
 17 18  1  0
 18 19  1  0
 18 29  1  0
 18 30  1  0
 29 31  1  0
 31 32  1  0
 31 33  1  0
 32 34  1  0
 34 35  1  0
  8  9  2  0
  9 10  1  0
 10 11  2  0
 11 13  1  0
 13 14  2  0
 14  8  1  0
 19 20  2  0
 20 21  1  0
 21 22  2  0
 22 23  1  0
 23 24  2  0
 24 19  1  0
M  END

$$$$
No_33-gen_results_new/Mpro_new_generate_500/2024-01-19-21-58-56/
     RDKit          3D

 33 35  0  0  0  0  0  0  0  0999 V2000
   -9.1300   -2.9100    0.4520 O   0  0  0  0  0  0  0  0  0  0  0  0
  -10.2490   -2.6420    0.1800 C   0  0  0  0  0  0  0  0  0  0  0  0
  -11.3800   -3.0650    1.0860 C   0  0  0  0  0  0  0  0  0  0  0  0
  -11.2000   -3.8390    2.3880 C   0  0  0  0  0  0  0  0  0  0  0  0
  -10.9900   -5.0690    2.3420 N   0  0  0  0  0  0  0  0  0  0  0  0
  -12.7310   -2.7290    0.7330 N   0  0  0  0  0  0  0  0  0  0  0  0
  -12.9960   -1.9940   -0.4510 N   0  0  0  0  0  0  0  0  0  0  0  0
  -14.3580   -1.6940   -0.7530 C   0  0  0  0  0  0  0  0  0  0  0  0
  -15.0390   -0.7180   -0.0560 C   0  0  0  0  0  0  0  0  0  0  0  0
  -16.3510   -0.4690   -0.3980 C   0  0  0  0  0  0  0  0  0  0  0  0
  -16.9430   -1.2030   -1.4080 C   0  0  0  0  0  0  0  0  0  0  0  0
  -18.3840   -0.9560   -1.8060 C   0  0  0  0  0  0  0  0  0  0  0  0
  -16.2510   -2.1690   -2.1000 C   0  0  0  0  0  0  0  0  0  0  0  0
  -14.9490   -2.4160   -1.7590 C   0  0  0  0  0  0  0  0  0  0  0  0
  -11.9050   -1.5730   -1.3540 C   0  0  0  0  0  0  0  0  0  0  0  0
  -10.5280   -1.9050   -1.0240 N   0  0  0  0  0  0  0  0  0  0  0  0
   -9.4550   -1.4720   -1.9190 C   0  0  0  0  0  0  0  0  0  0  0  0
   -9.2820   -2.3940   -3.1270 C   0  0  0  0  0  0  0  0  0  0  0  0
   -7.8170   -2.5500   -3.5360 C   0  0  0  0  0  0  0  0  0  0  0  0
   -6.9720   -3.3210   -2.7550 C   0  0  0  0  0  0  0  0  0  0  0  0
   -5.6390   -3.4770   -3.1110 C   0  0  0  0  0  0  0  0  0  0  0  0
   -5.1940   -2.8390   -4.2640 C   0  0  0  0  0  0  0  0  0  0  0  0
   -6.0850   -2.0780   -5.0070 C   0  0  0  0  0  0  0  0  0  0  0  0
   -7.3470   -1.9600   -4.6270 N   0  0  0  0  0  0  0  0  0  0  0  0
  -12.1450   -0.9640   -2.3390 O   0  0  0  0  0  0  0  0  0  0  0  0
  -18.7610   -1.8760   -2.7390 F   0  0  0  0  0  0  0  0  0  0  0  0
  -18.4550    0.3250   -2.2750 F   0  0  0  0  0  0  0  0  0  0  0  0
  -19.1950   -1.1300   -0.7370 F   0  0  0  0  0  0  0  0  0  0  0  0
   -9.7920   -3.7475   -2.8656 C   0  0  0  0  0  0  0  0  0  0  0  0
  -10.0268   -1.9037   -4.2201 F   0  0  0  0  0  0  0  0  0  0  0  0
   -9.6983   -4.6341   -3.7955 O   0  0  0  0  0  0  0  0  0  0  0  0
   -9.9460   -4.2584   -1.7981 O   0  0  0  0  0  0  0  0  0  0  0  0
   -9.2100   -5.4629   -1.4848 C   0  0  0  0  0  0  0  0  0  0  0  0
  1  2  2  0
  2  3  1  0
  2 16  1  0
  3  4  1  0
  3  6  2  0
  4  5  1  0
  6  7  1  0
  7 15  1  0
  7  8  1  0
 11 12  1  0
 12 28  1  0
 12 27  1  0
 12 26  1  0
 15 16  1  0
 15 25  2  0
 16 17  1  0
 17 18  1  0
 18 19  1  0
 18 29  1  0
 18 30  1  0
 29 31  2  0
 29 32  1  0
 32 33  1  0
  8  9  2  0
  9 10  1  0
 10 11  2  0
 11 13  1  0
 13 14  2  0
 14  8  1  0
 19 20  2  0
 20 21  1  0
 21 22  2  0
 22 23  1  0
 23 24  2  0
 24 19  1  0
M  END

$$$$
No_34-gen_results_new/Mpro_new_generate_500/2024-01-19-21-58-56/
     RDKit          3D

 35 37  0  0  0  0  0  0  0  0999 V2000
   -9.1300   -2.9100    0.4520 O   0  0  0  0  0  0  0  0  0  0  0  0
  -10.2490   -2.6420    0.1800 C   0  0  0  0  0  0  0  0  0  0  0  0
  -11.3800   -3.0650    1.0860 C   0  0  0  0  0  0  0  0  0  0  0  0
  -11.2000   -3.8390    2.3880 C   0  0  0  0  0  0  0  0  0  0  0  0
  -10.9900   -5.0690    2.3420 N   0  0  0  0  0  0  0  0  0  0  0  0
  -12.7310   -2.7290    0.7330 N   0  0  0  0  0  0  0  0  0  0  0  0
  -12.9960   -1.9940   -0.4510 N   0  0  0  0  0  0  0  0  0  0  0  0
  -14.3580   -1.6940   -0.7530 C   0  0  0  0  0  0  0  0  0  0  0  0
  -15.0390   -0.7180   -0.0560 C   0  0  0  0  0  0  0  0  0  0  0  0
  -16.3510   -0.4690   -0.3980 C   0  0  0  0  0  0  0  0  0  0  0  0
  -16.9430   -1.2030   -1.4080 C   0  0  0  0  0  0  0  0  0  0  0  0
  -18.3840   -0.9560   -1.8060 C   0  0  0  0  0  0  0  0  0  0  0  0
  -16.2510   -2.1690   -2.1000 C   0  0  0  0  0  0  0  0  0  0  0  0
  -14.9490   -2.4160   -1.7590 C   0  0  0  0  0  0  0  0  0  0  0  0
  -11.9050   -1.5730   -1.3540 C   0  0  0  0  0  0  0  0  0  0  0  0
  -10.5280   -1.9050   -1.0240 N   0  0  0  0  0  0  0  0  0  0  0  0
   -9.4550   -1.4720   -1.9190 C   0  0  0  0  0  0  0  0  0  0  0  0
   -9.2820   -2.3940   -3.1270 C   0  0  0  0  0  0  0  0  0  0  0  0
   -7.8170   -2.5500   -3.5360 C   0  0  0  0  0  0  0  0  0  0  0  0
   -6.9720   -3.3210   -2.7550 C   0  0  0  0  0  0  0  0  0  0  0  0
   -5.6390   -3.4770   -3.1110 C   0  0  0  0  0  0  0  0  0  0  0  0
   -5.1940   -2.8390   -4.2640 C   0  0  0  0  0  0  0  0  0  0  0  0
   -6.0850   -2.0780   -5.0070 C   0  0  0  0  0  0  0  0  0  0  0  0
   -7.3470   -1.9600   -4.6270 N   0  0  0  0  0  0  0  0  0  0  0  0
  -12.1450   -0.9640   -2.3390 O   0  0  0  0  0  0  0  0  0  0  0  0
  -18.7610   -1.8760   -2.7390 F   0  0  0  0  0  0  0  0  0  0  0  0
  -18.4550    0.3250   -2.2750 F   0  0  0  0  0  0  0  0  0  0  0  0
  -19.1950   -1.1300   -0.7370 F   0  0  0  0  0  0  0  0  0  0  0  0
  -10.0453   -2.0069   -4.3181 C   0  0  0  0  0  0  0  0  0  0  0  0
   -9.8476   -3.8948   -2.8015 C   0  0  0  0  0  0  0  0  0  0  0  0
   -9.3106   -4.5161   -1.8185 O   0  0  0  0  0  0  0  0  0  0  0  0
  -10.7107   -4.6933   -3.6532 C   0  0  0  0  0  0  0  0  0  0  0  0
  -12.1054   -4.9503   -3.0374 C   0  0  0  0  0  0  0  0  0  0  0  0
  -12.8656   -5.5881   -3.8081 F   0  0  0  0  0  0  0  0  0  0  0  0
  -12.1154   -5.3273   -1.7731 F   0  0  0  0  0  0  0  0  0  0  0  0
  1  2  2  0
  2  3  1  0
  2 16  1  0
  3  4  1  0
  3  6  2  0
  4  5  1  0
  6  7  1  0
  7 15  1  0
  7  8  1  0
 11 12  1  0
 12 28  1  0
 12 27  1  0
 12 26  1  0
 15 16  1  0
 15 25  2  0
 16 17  1  0
 17 18  1  0
 18 19  1  0
 18 29  1  0
 18 30  1  0
 30 31  2  0
 30 32  1  0
 32 33  1  0
 33 34  1  0
 33 35  1  0
  8  9  2  0
  9 10  1  0
 10 11  2  0
 11 13  1  0
 13 14  2  0
 14  8  1  0
 19 20  2  0
 20 21  1  0
 21 22  2  0
 22 23  1  0
 23 24  2  0
 24 19  1  0
M  END

$$$$
No_35-gen_results_new/Mpro_new_generate_500/2024-01-19-21-58-56/
     RDKit          3D

 34 36  0  0  0  0  0  0  0  0999 V2000
   -9.1300   -2.9100    0.4520 O   0  0  0  0  0  0  0  0  0  0  0  0
  -10.2490   -2.6420    0.1800 C   0  0  0  0  0  0  0  0  0  0  0  0
  -11.3800   -3.0650    1.0860 C   0  0  0  0  0  0  0  0  0  0  0  0
  -11.2000   -3.8390    2.3880 C   0  0  0  0  0  0  0  0  0  0  0  0
  -10.9900   -5.0690    2.3420 N   0  0  0  0  0  0  0  0  0  0  0  0
  -12.7310   -2.7290    0.7330 N   0  0  0  0  0  0  0  0  0  0  0  0
  -12.9960   -1.9940   -0.4510 N   0  0  0  0  0  0  0  0  0  0  0  0
  -14.3580   -1.6940   -0.7530 C   0  0  0  0  0  0  0  0  0  0  0  0
  -15.0390   -0.7180   -0.0560 C   0  0  0  0  0  0  0  0  0  0  0  0
  -16.3510   -0.4690   -0.3980 C   0  0  0  0  0  0  0  0  0  0  0  0
  -16.9430   -1.2030   -1.4080 C   0  0  0  0  0  0  0  0  0  0  0  0
  -18.3840   -0.9560   -1.8060 C   0  0  0  0  0  0  0  0  0  0  0  0
  -16.2510   -2.1690   -2.1000 C   0  0  0  0  0  0  0  0  0  0  0  0
  -14.9490   -2.4160   -1.7590 C   0  0  0  0  0  0  0  0  0  0  0  0
  -11.9050   -1.5730   -1.3540 C   0  0  0  0  0  0  0  0  0  0  0  0
  -10.5280   -1.9050   -1.0240 N   0  0  0  0  0  0  0  0  0  0  0  0
   -9.4550   -1.4720   -1.9190 C   0  0  0  0  0  0  0  0  0  0  0  0
   -9.2820   -2.3940   -3.1270 C   0  0  0  0  0  0  0  0  0  0  0  0
   -7.8170   -2.5500   -3.5360 C   0  0  0  0  0  0  0  0  0  0  0  0
   -6.9720   -3.3210   -2.7550 C   0  0  0  0  0  0  0  0  0  0  0  0
   -5.6390   -3.4770   -3.1110 C   0  0  0  0  0  0  0  0  0  0  0  0
   -5.1940   -2.8390   -4.2640 C   0  0  0  0  0  0  0  0  0  0  0  0
   -6.0850   -2.0780   -5.0070 C   0  0  0  0  0  0  0  0  0  0  0  0
   -7.3470   -1.9600   -4.6270 N   0  0  0  0  0  0  0  0  0  0  0  0
  -12.1450   -0.9640   -2.3390 O   0  0  0  0  0  0  0  0  0  0  0  0
  -18.7610   -1.8760   -2.7390 F   0  0  0  0  0  0  0  0  0  0  0  0
  -18.4550    0.3250   -2.2750 F   0  0  0  0  0  0  0  0  0  0  0  0
  -19.1950   -1.1300   -0.7370 F   0  0  0  0  0  0  0  0  0  0  0  0
   -9.7920   -3.7475   -2.8656 C   0  0  0  0  0  0  0  0  0  0  0  0
  -10.0717   -1.8029   -4.3549 C   0  0  0  0  0  0  0  0  0  0  0  0
   -9.2295   -4.7877   -2.1591 C   0  0  0  0  0  0  0  0  0  0  0  0
  -11.1941   -4.0165   -3.0126 C   0  0  0  0  0  0  0  0  0  0  0  0
   -8.3734   -5.4882   -2.6621 O   0  0  0  0  0  0  0  0  0  0  0  0
   -7.8906   -6.6014   -1.8609 C   0  0  0  0  0  0  0  0  0  0  0  0
  1  2  2  0
  2  3  1  0
  2 16  1  0
  3  4  1  0
  3  6  2  0
  4  5  1  0
  6  7  1  0
  7 15  1  0
  7  8  1  0
 11 12  1  0
 12 28  1  0
 12 27  1  0
 12 26  1  0
 15 16  1  0
 15 25  2  0
 16 17  1  0
 17 18  1  0
 18 19  1  0
 18 29  1  0
 18 30  1  0
 29 31  2  3
 29 32  1  0
 31 33  1  0
 33 34  1  0
  8  9  2  0
  9 10  1  0
 10 11  2  0
 11 13  1  0
 13 14  2  0
 14  8  1  0
 19 20  2  0
 20 21  1  0
 21 22  2  0
 22 23  1  0
 23 24  2  0
 24 19  1  0
M  END

$$$$
No_36-gen_results_new/Mpro_new_generate_500/2024-01-19-21-58-56/
     RDKit          3D

 33 35  0  0  0  0  0  0  0  0999 V2000
   -9.1300   -2.9100    0.4520 O   0  0  0  0  0  0  0  0  0  0  0  0
  -10.2490   -2.6420    0.1800 C   0  0  0  0  0  0  0  0  0  0  0  0
  -11.3800   -3.0650    1.0860 C   0  0  0  0  0  0  0  0  0  0  0  0
  -11.2000   -3.8390    2.3880 C   0  0  0  0  0  0  0  0  0  0  0  0
  -10.9900   -5.0690    2.3420 N   0  0  0  0  0  0  0  0  0  0  0  0
  -12.7310   -2.7290    0.7330 N   0  0  0  0  0  0  0  0  0  0  0  0
  -12.9960   -1.9940   -0.4510 N   0  0  0  0  0  0  0  0  0  0  0  0
  -14.3580   -1.6940   -0.7530 C   0  0  0  0  0  0  0  0  0  0  0  0
  -15.0390   -0.7180   -0.0560 C   0  0  0  0  0  0  0  0  0  0  0  0
  -16.3510   -0.4690   -0.3980 C   0  0  0  0  0  0  0  0  0  0  0  0
  -16.9430   -1.2030   -1.4080 C   0  0  0  0  0  0  0  0  0  0  0  0
  -18.3840   -0.9560   -1.8060 C   0  0  0  0  0  0  0  0  0  0  0  0
  -16.2510   -2.1690   -2.1000 C   0  0  0  0  0  0  0  0  0  0  0  0
  -14.9490   -2.4160   -1.7590 C   0  0  0  0  0  0  0  0  0  0  0  0
  -11.9050   -1.5730   -1.3540 C   0  0  0  0  0  0  0  0  0  0  0  0
  -10.5280   -1.9050   -1.0240 N   0  0  0  0  0  0  0  0  0  0  0  0
   -9.4550   -1.4720   -1.9190 C   0  0  0  0  0  0  0  0  0  0  0  0
   -9.2820   -2.3940   -3.1270 C   0  0  0  0  0  0  0  0  0  0  0  0
   -7.8170   -2.5500   -3.5360 C   0  0  0  0  0  0  0  0  0  0  0  0
   -6.9720   -3.3210   -2.7550 C   0  0  0  0  0  0  0  0  0  0  0  0
   -5.6390   -3.4770   -3.1110 C   0  0  0  0  0  0  0  0  0  0  0  0
   -5.1940   -2.8390   -4.2640 C   0  0  0  0  0  0  0  0  0  0  0  0
   -6.0850   -2.0780   -5.0070 C   0  0  0  0  0  0  0  0  0  0  0  0
   -7.3470   -1.9600   -4.6270 N   0  0  0  0  0  0  0  0  0  0  0  0
  -12.1450   -0.9640   -2.3390 O   0  0  0  0  0  0  0  0  0  0  0  0
  -18.7610   -1.8760   -2.7390 F   0  0  0  0  0  0  0  0  0  0  0  0
  -18.4550    0.3250   -2.2750 F   0  0  0  0  0  0  0  0  0  0  0  0
  -19.1950   -1.1300   -0.7370 F   0  0  0  0  0  0  0  0  0  0  0  0
  -10.0899   -3.0088   -3.7244 O   0  0  0  0  0  0  0  0  0  0  0  0
  -16.7844   -3.0180   -3.1233 O   0  0  0  0  0  0  0  0  0  0  0  0
  -16.5408   -4.4495   -2.9958 C   0  0  0  0  0  0  0  0  0  0  0  0
  -17.0331   -5.1726   -2.4010 F   0  0  0  0  0  0  0  0  0  0  0  0
  -15.5643   -4.7645   -3.6861 F   0  0  0  0  0  0  0  0  0  0  0  0
  1  2  2  0
  2  3  1  0
  2 16  1  0
  3  4  1  0
  3  6  2  0
  4  5  1  0
  6  7  1  0
  7 15  1  0
  7  8  1  0
 11 12  1  0
 12 28  1  0
 12 27  1  0
 12 26  1  0
 15 16  1  0
 15 25  2  0
 16 17  1  0
 17 18  1  0
 18 19  1  0
 18 29  2  0
 13 30  1  0
 30 31  1  0
 31 32  1  0
 31 33  1  0
  8  9  2  0
  9 10  1  0
 10 11  2  0
 11 13  1  0
 13 14  2  0
 14  8  1  0
 19 20  2  0
 20 21  1  0
 21 22  2  0
 22 23  1  0
 23 24  2  0
 24 19  1  0
M  END

$$$$
No_37-gen_results_new/Mpro_new_generate_500/2024-01-19-21-58-56/
     RDKit          3D

 33 35  0  0  0  0  0  0  0  0999 V2000
   -9.1300   -2.9100    0.4520 O   0  0  0  0  0  0  0  0  0  0  0  0
  -10.2490   -2.6420    0.1800 C   0  0  0  0  0  0  0  0  0  0  0  0
  -11.3800   -3.0650    1.0860 C   0  0  0  0  0  0  0  0  0  0  0  0
  -11.2000   -3.8390    2.3880 C   0  0  0  0  0  0  0  0  0  0  0  0
  -10.9900   -5.0690    2.3420 N   0  0  0  0  0  0  0  0  0  0  0  0
  -12.7310   -2.7290    0.7330 N   0  0  0  0  0  0  0  0  0  0  0  0
  -12.9960   -1.9940   -0.4510 N   0  0  0  0  0  0  0  0  0  0  0  0
  -14.3580   -1.6940   -0.7530 C   0  0  0  0  0  0  0  0  0  0  0  0
  -15.0390   -0.7180   -0.0560 C   0  0  0  0  0  0  0  0  0  0  0  0
  -16.3510   -0.4690   -0.3980 C   0  0  0  0  0  0  0  0  0  0  0  0
  -16.9430   -1.2030   -1.4080 C   0  0  0  0  0  0  0  0  0  0  0  0
  -18.3840   -0.9560   -1.8060 C   0  0  0  0  0  0  0  0  0  0  0  0
  -16.2510   -2.1690   -2.1000 C   0  0  0  0  0  0  0  0  0  0  0  0
  -14.9490   -2.4160   -1.7590 C   0  0  0  0  0  0  0  0  0  0  0  0
  -11.9050   -1.5730   -1.3540 C   0  0  0  0  0  0  0  0  0  0  0  0
  -10.5280   -1.9050   -1.0240 N   0  0  0  0  0  0  0  0  0  0  0  0
   -9.4550   -1.4720   -1.9190 C   0  0  0  0  0  0  0  0  0  0  0  0
   -9.2820   -2.3940   -3.1270 C   0  0  0  0  0  0  0  0  0  0  0  0
   -7.8170   -2.5500   -3.5360 C   0  0  0  0  0  0  0  0  0  0  0  0
   -6.9720   -3.3210   -2.7550 C   0  0  0  0  0  0  0  0  0  0  0  0
   -5.6390   -3.4770   -3.1110 C   0  0  0  0  0  0  0  0  0  0  0  0
   -5.1940   -2.8390   -4.2640 C   0  0  0  0  0  0  0  0  0  0  0  0
   -6.0850   -2.0780   -5.0070 C   0  0  0  0  0  0  0  0  0  0  0  0
   -7.3470   -1.9600   -4.6270 N   0  0  0  0  0  0  0  0  0  0  0  0
  -12.1450   -0.9640   -2.3390 O   0  0  0  0  0  0  0  0  0  0  0  0
  -18.7610   -1.8760   -2.7390 F   0  0  0  0  0  0  0  0  0  0  0  0
  -18.4550    0.3250   -2.2750 F   0  0  0  0  0  0  0  0  0  0  0  0
  -19.1950   -1.1300   -0.7370 F   0  0  0  0  0  0  0  0  0  0  0  0
  -10.1861   -2.0270   -4.5221 S   0  0  0  0  0  0  0  0  0  0  0  0
  -10.0854   -3.4776   -5.5497 C   0  0  0  0  0  0  0  0  0  0  0  0
  -10.6814   -1.0172   -4.9168 O   0  0  0  0  0  0  0  0  0  0  0  0
  -10.8617   -3.4369   -5.1405 C   0  0  0  0  0  0  0  0  0  0  0  0
   -9.4723   -2.7873   -4.6701 S   0  0  0  0  0  0  0  0  0  0  0  0
  1  2  2  0
  2  3  1  0
  2 16  1  0
  3  4  1  0
  3  6  2  0
  4  5  1  0
  6  7  1  0
  7 15  1  0
  7  8  1  0
 11 12  1  0
 12 28  1  0
 12 27  1  0
 12 26  1  0
 15 16  1  0
 15 25  2  0
 16 17  1  0
 17 18  1  0
 18 19  1  0
 18 29  1  0
 29 30  1  0
 29 31  2  0
 30 32  1  0
 29 33  2  0
  8  9  2  0
  9 10  1  0
 10 11  2  0
 11 13  1  0
 13 14  2  0
 14  8  1  0
 19 20  2  0
 20 21  1  0
 21 22  2  0
 22 23  1  0
 23 24  2  0
 24 19  1  0
M  END

$$$$
No_38-gen_results_new/Mpro_new_generate_500/2024-01-19-21-58-56/
     RDKit          3D

 30 32  0  0  0  0  0  0  0  0999 V2000
   -9.1300   -2.9100    0.4520 O   0  0  0  0  0  0  0  0  0  0  0  0
  -10.2490   -2.6420    0.1800 C   0  0  0  0  0  0  0  0  0  0  0  0
  -11.3800   -3.0650    1.0860 C   0  0  0  0  0  0  0  0  0  0  0  0
  -11.2000   -3.8390    2.3880 C   0  0  0  0  0  0  0  0  0  0  0  0
  -10.9900   -5.0690    2.3420 N   0  0  0  0  0  0  0  0  0  0  0  0
  -12.7310   -2.7290    0.7330 N   0  0  0  0  0  0  0  0  0  0  0  0
  -12.9960   -1.9940   -0.4510 N   0  0  0  0  0  0  0  0  0  0  0  0
  -14.3580   -1.6940   -0.7530 C   0  0  0  0  0  0  0  0  0  0  0  0
  -15.0390   -0.7180   -0.0560 C   0  0  0  0  0  0  0  0  0  0  0  0
  -16.3510   -0.4690   -0.3980 C   0  0  0  0  0  0  0  0  0  0  0  0
  -16.9430   -1.2030   -1.4080 C   0  0  0  0  0  0  0  0  0  0  0  0
  -18.3840   -0.9560   -1.8060 C   0  0  0  0  0  0  0  0  0  0  0  0
  -16.2510   -2.1690   -2.1000 C   0  0  0  0  0  0  0  0  0  0  0  0
  -14.9490   -2.4160   -1.7590 C   0  0  0  0  0  0  0  0  0  0  0  0
  -11.9050   -1.5730   -1.3540 C   0  0  0  0  0  0  0  0  0  0  0  0
  -10.5280   -1.9050   -1.0240 N   0  0  0  0  0  0  0  0  0  0  0  0
   -9.4550   -1.4720   -1.9190 C   0  0  0  0  0  0  0  0  0  0  0  0
   -9.2820   -2.3940   -3.1270 C   0  0  0  0  0  0  0  0  0  0  0  0
   -7.8170   -2.5500   -3.5360 C   0  0  0  0  0  0  0  0  0  0  0  0
   -6.9720   -3.3210   -2.7550 C   0  0  0  0  0  0  0  0  0  0  0  0
   -5.6390   -3.4770   -3.1110 C   0  0  0  0  0  0  0  0  0  0  0  0
   -5.1940   -2.8390   -4.2640 C   0  0  0  0  0  0  0  0  0  0  0  0
   -6.0850   -2.0780   -5.0070 C   0  0  0  0  0  0  0  0  0  0  0  0
   -7.3470   -1.9600   -4.6270 N   0  0  0  0  0  0  0  0  0  0  0  0
  -12.1450   -0.9640   -2.3390 O   0  0  0  0  0  0  0  0  0  0  0  0
  -18.7610   -1.8760   -2.7390 F   0  0  0  0  0  0  0  0  0  0  0  0
  -18.4550    0.3250   -2.2750 F   0  0  0  0  0  0  0  0  0  0  0  0
  -19.1950   -1.1300   -0.7370 F   0  0  0  0  0  0  0  0  0  0  0  0
  -10.0687   -2.9411   -3.7692 F   0  0  0  0  0  0  0  0  0  0  0  0
   -9.8291   -3.4610   -2.7468 F   0  0  0  0  0  0  0  0  0  0  0  0
  1  2  2  0
  2  3  1  0
  2 16  1  0
  3  4  1  0
  3  6  2  0
  4  5  1  0
  6  7  1  0
  7 15  1  0
  7  8  1  0
 11 12  1  0
 12 28  1  0
 12 27  1  0
 12 26  1  0
 15 16  1  0
 15 25  2  0
 16 17  1  0
 17 18  1  0
 18 19  1  0
 18 29  1  0
 18 30  1  0
  8  9  2  0
  9 10  1  0
 10 11  2  0
 11 13  1  0
 13 14  2  0
 14  8  1  0
 19 20  2  0
 20 21  1  0
 21 22  2  0
 22 23  1  0
 23 24  2  0
 24 19  1  0
M  END

$$$$
No_39-gen_results_new/Mpro_new_generate_500/2024-01-19-21-58-56/
     RDKit          3D

 32 34  0  0  0  0  0  0  0  0999 V2000
   -9.1300   -2.9100    0.4520 O   0  0  0  0  0  0  0  0  0  0  0  0
  -10.2490   -2.6420    0.1800 C   0  0  0  0  0  0  0  0  0  0  0  0
  -11.3800   -3.0650    1.0860 C   0  0  0  0  0  0  0  0  0  0  0  0
  -11.2000   -3.8390    2.3880 C   0  0  0  0  0  0  0  0  0  0  0  0
  -10.9900   -5.0690    2.3420 N   0  0  0  0  0  0  0  0  0  0  0  0
  -12.7310   -2.7290    0.7330 N   0  0  0  0  0  0  0  0  0  0  0  0
  -12.9960   -1.9940   -0.4510 N   0  0  0  0  0  0  0  0  0  0  0  0
  -14.3580   -1.6940   -0.7530 C   0  0  0  0  0  0  0  0  0  0  0  0
  -15.0390   -0.7180   -0.0560 C   0  0  0  0  0  0  0  0  0  0  0  0
  -16.3510   -0.4690   -0.3980 C   0  0  0  0  0  0  0  0  0  0  0  0
  -16.9430   -1.2030   -1.4080 C   0  0  0  0  0  0  0  0  0  0  0  0
  -18.3840   -0.9560   -1.8060 C   0  0  0  0  0  0  0  0  0  0  0  0
  -16.2510   -2.1690   -2.1000 C   0  0  0  0  0  0  0  0  0  0  0  0
  -14.9490   -2.4160   -1.7590 C   0  0  0  0  0  0  0  0  0  0  0  0
  -11.9050   -1.5730   -1.3540 C   0  0  0  0  0  0  0  0  0  0  0  0
  -10.5280   -1.9050   -1.0240 N   0  0  0  0  0  0  0  0  0  0  0  0
   -9.4550   -1.4720   -1.9190 C   0  0  0  0  0  0  0  0  0  0  0  0
   -9.2820   -2.3940   -3.1270 C   0  0  0  0  0  0  0  0  0  0  0  0
   -7.8170   -2.5500   -3.5360 C   0  0  0  0  0  0  0  0  0  0  0  0
   -6.9720   -3.3210   -2.7550 C   0  0  0  0  0  0  0  0  0  0  0  0
   -5.6390   -3.4770   -3.1110 C   0  0  0  0  0  0  0  0  0  0  0  0
   -5.1940   -2.8390   -4.2640 C   0  0  0  0  0  0  0  0  0  0  0  0
   -6.0850   -2.0780   -5.0070 C   0  0  0  0  0  0  0  0  0  0  0  0
   -7.3470   -1.9600   -4.6270 N   0  0  0  0  0  0  0  0  0  0  0  0
  -12.1450   -0.9640   -2.3390 O   0  0  0  0  0  0  0  0  0  0  0  0
  -18.7610   -1.8760   -2.7390 F   0  0  0  0  0  0  0  0  0  0  0  0
  -18.4550    0.3250   -2.2750 F   0  0  0  0  0  0  0  0  0  0  0  0
  -19.1950   -1.1300   -0.7370 F   0  0  0  0  0  0  0  0  0  0  0  0
   -9.7920   -3.7475   -2.8656 C   0  0  0  0  0  0  0  0  0  0  0  0
  -10.0717   -1.8029   -4.3549 C   0  0  0  0  0  0  0  0  0  0  0  0
   -9.2295   -4.7877   -2.1591 C   0  0  0  0  0  0  0  0  0  0  0  0
  -11.4036   -4.2675   -3.5213 Cl  0  0  0  0  0  0  0  0  0  0  0  0
  1  2  2  0
  2  3  1  0
  2 16  1  0
  3  4  1  0
  3  6  2  0
  4  5  1  0
  6  7  1  0
  7 15  1  0
  7  8  1  0
 11 12  1  0
 12 28  1  0
 12 27  1  0
 12 26  1  0
 15 16  1  0
 15 25  2  0
 16 17  1  0
 17 18  1  0
 18 19  1  0
 18 29  1  0
 18 30  1  0
 29 31  2  0
 29 32  1  0
  8  9  2  0
  9 10  1  0
 10 11  2  0
 11 13  1  0
 13 14  2  0
 14  8  1  0
 19 20  2  0
 20 21  1  0
 21 22  2  0
 22 23  1  0
 23 24  2  0
 24 19  1  0
M  END

$$$$
No_40-gen_results_new/Mpro_new_generate_500/2024-01-19-21-58-56/
     RDKit          3D

 31 33  0  0  0  0  0  0  0  0999 V2000
   -9.1300   -2.9100    0.4520 O   0  0  0  0  0  0  0  0  0  0  0  0
  -10.2490   -2.6420    0.1800 C   0  0  0  0  0  0  0  0  0  0  0  0
  -11.3800   -3.0650    1.0860 C   0  0  0  0  0  0  0  0  0  0  0  0
  -11.2000   -3.8390    2.3880 C   0  0  0  0  0  0  0  0  0  0  0  0
  -10.9900   -5.0690    2.3420 N   0  0  0  0  0  0  0  0  0  0  0  0
  -12.7310   -2.7290    0.7330 N   0  0  0  0  0  0  0  0  0  0  0  0
  -12.9960   -1.9940   -0.4510 N   0  0  0  0  0  0  0  0  0  0  0  0
  -14.3580   -1.6940   -0.7530 C   0  0  0  0  0  0  0  0  0  0  0  0
  -15.0390   -0.7180   -0.0560 C   0  0  0  0  0  0  0  0  0  0  0  0
  -16.3510   -0.4690   -0.3980 C   0  0  0  0  0  0  0  0  0  0  0  0
  -16.9430   -1.2030   -1.4080 C   0  0  0  0  0  0  0  0  0  0  0  0
  -18.3840   -0.9560   -1.8060 C   0  0  0  0  0  0  0  0  0  0  0  0
  -16.2510   -2.1690   -2.1000 C   0  0  0  0  0  0  0  0  0  0  0  0
  -14.9490   -2.4160   -1.7590 C   0  0  0  0  0  0  0  0  0  0  0  0
  -11.9050   -1.5730   -1.3540 C   0  0  0  0  0  0  0  0  0  0  0  0
  -10.5280   -1.9050   -1.0240 N   0  0  0  0  0  0  0  0  0  0  0  0
   -9.4550   -1.4720   -1.9190 C   0  0  0  0  0  0  0  0  0  0  0  0
   -9.2820   -2.3940   -3.1270 C   0  0  0  0  0  0  0  0  0  0  0  0
   -7.8170   -2.5500   -3.5360 C   0  0  0  0  0  0  0  0  0  0  0  0
   -6.9720   -3.3210   -2.7550 C   0  0  0  0  0  0  0  0  0  0  0  0
   -5.6390   -3.4770   -3.1110 C   0  0  0  0  0  0  0  0  0  0  0  0
   -5.1940   -2.8390   -4.2640 C   0  0  0  0  0  0  0  0  0  0  0  0
   -6.0850   -2.0780   -5.0070 C   0  0  0  0  0  0  0  0  0  0  0  0
   -7.3470   -1.9600   -4.6270 N   0  0  0  0  0  0  0  0  0  0  0  0
  -12.1450   -0.9640   -2.3390 O   0  0  0  0  0  0  0  0  0  0  0  0
  -18.7610   -1.8760   -2.7390 F   0  0  0  0  0  0  0  0  0  0  0  0
  -18.4550    0.3250   -2.2750 F   0  0  0  0  0  0  0  0  0  0  0  0
  -19.1950   -1.1300   -0.7370 F   0  0  0  0  0  0  0  0  0  0  0  0
  -10.1861   -2.0270   -4.5221 S   0  0  0  0  0  0  0  0  0  0  0  0
   -9.9265   -1.1472   -5.4383 S   0  0  0  0  0  0  0  0  0  0  0  0
  -11.4282   -2.9344   -4.6292 O   0  0  0  0  0  0  0  0  0  0  0  0
  1  2  2  0
  2  3  1  0
  2 16  1  0
  3  4  1  0
  3  6  2  0
  4  5  1  0
  6  7  1  0
  7 15  1  0
  7  8  1  0
 11 12  1  0
 12 28  1  0
 12 27  1  0
 12 26  1  0
 15 16  1  0
 15 25  2  0
 16 17  1  0
 17 18  1  0
 18 19  1  0
 18 29  1  0
 29 30  2  0
 29 31  2  0
  8  9  2  0
  9 10  1  0
 10 11  2  0
 11 13  1  0
 13 14  2  0
 14  8  1  0
 19 20  2  0
 20 21  1  0
 21 22  2  0
 22 23  1  0
 23 24  2  0
 24 19  1  0
M  END

$$$$
No_41-gen_results_new/Mpro_new_generate_500/2024-01-19-21-58-56/
     RDKit          3D

 33 35  0  0  0  0  0  0  0  0999 V2000
   -9.1300   -2.9100    0.4520 O   0  0  0  0  0  0  0  0  0  0  0  0
  -10.2490   -2.6420    0.1800 C   0  0  0  0  0  0  0  0  0  0  0  0
  -11.3800   -3.0650    1.0860 C   0  0  0  0  0  0  0  0  0  0  0  0
  -11.2000   -3.8390    2.3880 C   0  0  0  0  0  0  0  0  0  0  0  0
  -10.9900   -5.0690    2.3420 N   0  0  0  0  0  0  0  0  0  0  0  0
  -12.7310   -2.7290    0.7330 N   0  0  0  0  0  0  0  0  0  0  0  0
  -12.9960   -1.9940   -0.4510 N   0  0  0  0  0  0  0  0  0  0  0  0
  -14.3580   -1.6940   -0.7530 C   0  0  0  0  0  0  0  0  0  0  0  0
  -15.0390   -0.7180   -0.0560 C   0  0  0  0  0  0  0  0  0  0  0  0
  -16.3510   -0.4690   -0.3980 C   0  0  0  0  0  0  0  0  0  0  0  0
  -16.9430   -1.2030   -1.4080 C   0  0  0  0  0  0  0  0  0  0  0  0
  -18.3840   -0.9560   -1.8060 C   0  0  0  0  0  0  0  0  0  0  0  0
  -16.2510   -2.1690   -2.1000 C   0  0  0  0  0  0  0  0  0  0  0  0
  -14.9490   -2.4160   -1.7590 C   0  0  0  0  0  0  0  0  0  0  0  0
  -11.9050   -1.5730   -1.3540 C   0  0  0  0  0  0  0  0  0  0  0  0
  -10.5280   -1.9050   -1.0240 N   0  0  0  0  0  0  0  0  0  0  0  0
   -9.4550   -1.4720   -1.9190 C   0  0  0  0  0  0  0  0  0  0  0  0
   -9.2820   -2.3940   -3.1270 C   0  0  0  0  0  0  0  0  0  0  0  0
   -7.8170   -2.5500   -3.5360 C   0  0  0  0  0  0  0  0  0  0  0  0
   -6.9720   -3.3210   -2.7550 C   0  0  0  0  0  0  0  0  0  0  0  0
   -5.6390   -3.4770   -3.1110 C   0  0  0  0  0  0  0  0  0  0  0  0
   -5.1940   -2.8390   -4.2640 C   0  0  0  0  0  0  0  0  0  0  0  0
   -6.0850   -2.0780   -5.0070 C   0  0  0  0  0  0  0  0  0  0  0  0
   -7.3470   -1.9600   -4.6270 N   0  0  0  0  0  0  0  0  0  0  0  0
  -12.1450   -0.9640   -2.3390 O   0  0  0  0  0  0  0  0  0  0  0  0
  -18.7610   -1.8760   -2.7390 F   0  0  0  0  0  0  0  0  0  0  0  0
  -18.4550    0.3250   -2.2750 F   0  0  0  0  0  0  0  0  0  0  0  0
  -19.1950   -1.1300   -0.7370 F   0  0  0  0  0  0  0  0  0  0  0  0
   -9.7920   -3.7475   -2.8656 C   0  0  0  0  0  0  0  0  0  0  0  0
  -10.0717   -1.8029   -4.3549 C   0  0  0  0  0  0  0  0  0  0  0  0
  -10.0419   -4.6597   -4.1091 C   0  0  0  0  0  0  0  0  0  0  0  0
   -9.4793   -5.8134   -3.8778 F   0  0  0  0  0  0  0  0  0  0  0  0
  -11.8220   -5.0269   -4.4055 Cl  0  0  0  0  0  0  0  0  0  0  0  0
  1  2  2  0
  2  3  1  0
  2 16  1  0
  3  4  1  0
  3  6  2  0
  4  5  1  0
  6  7  1  0
  7 15  1  0
  7  8  1  0
 11 12  1  0
 12 28  1  0
 12 27  1  0
 12 26  1  0
 15 16  1  0
 15 25  2  0
 16 17  1  0
 17 18  1  0
 18 19  1  0
 18 29  1  0
 18 30  1  0
 29 31  2  3
 31 32  1  0
 31 33  1  0
  8  9  2  0
  9 10  1  0
 10 11  2  0
 11 13  1  0
 13 14  2  0
 14  8  1  0
 19 20  2  0
 20 21  1  0
 21 22  2  0
 22 23  1  0
 23 24  2  0
 24 19  1  0
M  END

$$$$
No_42-gen_results_new/Mpro_new_generate_500/2024-01-19-21-58-56/
     RDKit          3D

 33 35  0  0  0  0  0  0  0  0999 V2000
   -9.1300   -2.9100    0.4520 O   0  0  0  0  0  0  0  0  0  0  0  0
  -10.2490   -2.6420    0.1800 C   0  0  0  0  0  0  0  0  0  0  0  0
  -11.3800   -3.0650    1.0860 C   0  0  0  0  0  0  0  0  0  0  0  0
  -11.2000   -3.8390    2.3880 C   0  0  0  0  0  0  0  0  0  0  0  0
  -10.9900   -5.0690    2.3420 N   0  0  0  0  0  0  0  0  0  0  0  0
  -12.7310   -2.7290    0.7330 N   0  0  0  0  0  0  0  0  0  0  0  0
  -12.9960   -1.9940   -0.4510 N   0  0  0  0  0  0  0  0  0  0  0  0
  -14.3580   -1.6940   -0.7530 C   0  0  0  0  0  0  0  0  0  0  0  0
  -15.0390   -0.7180   -0.0560 C   0  0  0  0  0  0  0  0  0  0  0  0
  -16.3510   -0.4690   -0.3980 C   0  0  0  0  0  0  0  0  0  0  0  0
  -16.9430   -1.2030   -1.4080 C   0  0  0  0  0  0  0  0  0  0  0  0
  -18.3840   -0.9560   -1.8060 C   0  0  0  0  0  0  0  0  0  0  0  0
  -16.2510   -2.1690   -2.1000 C   0  0  0  0  0  0  0  0  0  0  0  0
  -14.9490   -2.4160   -1.7590 C   0  0  0  0  0  0  0  0  0  0  0  0
  -11.9050   -1.5730   -1.3540 C   0  0  0  0  0  0  0  0  0  0  0  0
  -10.5280   -1.9050   -1.0240 N   0  0  0  0  0  0  0  0  0  0  0  0
   -9.4550   -1.4720   -1.9190 C   0  0  0  0  0  0  0  0  0  0  0  0
   -9.2820   -2.3940   -3.1270 C   0  0  0  0  0  0  0  0  0  0  0  0
   -7.8170   -2.5500   -3.5360 C   0  0  0  0  0  0  0  0  0  0  0  0
   -6.9720   -3.3210   -2.7550 C   0  0  0  0  0  0  0  0  0  0  0  0
   -5.6390   -3.4770   -3.1110 C   0  0  0  0  0  0  0  0  0  0  0  0
   -5.1940   -2.8390   -4.2640 C   0  0  0  0  0  0  0  0  0  0  0  0
   -6.0850   -2.0780   -5.0070 C   0  0  0  0  0  0  0  0  0  0  0  0
   -7.3470   -1.9600   -4.6270 N   0  0  0  0  0  0  0  0  0  0  0  0
  -12.1450   -0.9640   -2.3390 O   0  0  0  0  0  0  0  0  0  0  0  0
  -18.7610   -1.8760   -2.7390 F   0  0  0  0  0  0  0  0  0  0  0  0
  -18.4550    0.3250   -2.2750 F   0  0  0  0  0  0  0  0  0  0  0  0
  -19.1950   -1.1300   -0.7370 F   0  0  0  0  0  0  0  0  0  0  0  0
   -9.7920   -3.7475   -2.8656 C   0  0  0  0  0  0  0  0  0  0  0  0
   -9.9778   -1.5944   -4.2803 C   0  0  0  0  0  0  0  0  0  0  0  0
  -10.1293   -4.2271   -1.8648 F   0  0  0  0  0  0  0  0  0  0  0  0
   -9.1256   -4.5392   -3.3659 F   0  0  0  0  0  0  0  0  0  0  0  0
  -10.8909   -3.3290   -2.8576 F   0  0  0  0  0  0  0  0  0  0  0  0
  1  2  2  0
  2  3  1  0
  2 16  1  0
  3  4  1  0
  3  6  2  0
  4  5  1  0
  6  7  1  0
  7 15  1  0
  7  8  1  0
 11 12  1  0
 12 28  1  0
 12 27  1  0
 12 26  1  0
 15 16  1  0
 15 25  2  0
 16 17  1  0
 17 18  1  0
 18 19  1  0
 18 29  1  0
 18 30  1  0
 29 31  1  0
 29 32  1  0
 29 33  1  0
  8  9  2  0
  9 10  1  0
 10 11  2  0
 11 13  1  0
 13 14  2  0
 14  8  1  0
 19 20  2  0
 20 21  1  0
 21 22  2  0
 22 23  1  0
 23 24  2  0
 24 19  1  0
M  END

$$$$
No_43-gen_results_new/Mpro_new_generate_500/2024-01-19-21-58-56/
     RDKit          3D

 35 37  0  0  0  0  0  0  0  0999 V2000
   -9.1300   -2.9100    0.4520 O   0  0  0  0  0  0  0  0  0  0  0  0
  -10.2490   -2.6420    0.1800 C   0  0  0  0  0  0  0  0  0  0  0  0
  -11.3800   -3.0650    1.0860 C   0  0  0  0  0  0  0  0  0  0  0  0
  -11.2000   -3.8390    2.3880 C   0  0  0  0  0  0  0  0  0  0  0  0
  -10.9900   -5.0690    2.3420 N   0  0  0  0  0  0  0  0  0  0  0  0
  -12.7310   -2.7290    0.7330 N   0  0  0  0  0  0  0  0  0  0  0  0
  -12.9960   -1.9940   -0.4510 N   0  0  0  0  0  0  0  0  0  0  0  0
  -14.3580   -1.6940   -0.7530 C   0  0  0  0  0  0  0  0  0  0  0  0
  -15.0390   -0.7180   -0.0560 C   0  0  0  0  0  0  0  0  0  0  0  0
  -16.3510   -0.4690   -0.3980 C   0  0  0  0  0  0  0  0  0  0  0  0
  -16.9430   -1.2030   -1.4080 C   0  0  0  0  0  0  0  0  0  0  0  0
  -18.3840   -0.9560   -1.8060 C   0  0  0  0  0  0  0  0  0  0  0  0
  -16.2510   -2.1690   -2.1000 C   0  0  0  0  0  0  0  0  0  0  0  0
  -14.9490   -2.4160   -1.7590 C   0  0  0  0  0  0  0  0  0  0  0  0
  -11.9050   -1.5730   -1.3540 C   0  0  0  0  0  0  0  0  0  0  0  0
  -10.5280   -1.9050   -1.0240 N   0  0  0  0  0  0  0  0  0  0  0  0
   -9.4550   -1.4720   -1.9190 C   0  0  0  0  0  0  0  0  0  0  0  0
   -9.2820   -2.3940   -3.1270 C   0  0  0  0  0  0  0  0  0  0  0  0
   -7.8170   -2.5500   -3.5360 C   0  0  0  0  0  0  0  0  0  0  0  0
   -6.9720   -3.3210   -2.7550 C   0  0  0  0  0  0  0  0  0  0  0  0
   -5.6390   -3.4770   -3.1110 C   0  0  0  0  0  0  0  0  0  0  0  0
   -5.1940   -2.8390   -4.2640 C   0  0  0  0  0  0  0  0  0  0  0  0
   -6.0850   -2.0780   -5.0070 C   0  0  0  0  0  0  0  0  0  0  0  0
   -7.3470   -1.9600   -4.6270 N   0  0  0  0  0  0  0  0  0  0  0  0
  -12.1450   -0.9640   -2.3390 O   0  0  0  0  0  0  0  0  0  0  0  0
  -18.7610   -1.8760   -2.7390 F   0  0  0  0  0  0  0  0  0  0  0  0
  -18.4550    0.3250   -2.2750 F   0  0  0  0  0  0  0  0  0  0  0  0
  -19.1950   -1.1300   -0.7370 F   0  0  0  0  0  0  0  0  0  0  0  0
  -10.0453   -2.0069   -4.3181 C   0  0  0  0  0  0  0  0  0  0  0  0
   -9.8476   -3.8948   -2.8015 C   0  0  0  0  0  0  0  0  0  0  0  0
  -10.9871   -4.2370   -3.4678 C   0  0  0  0  0  0  0  0  0  0  0  0
  -12.0609   -5.1160   -3.0647 C   0  0  0  0  0  0  0  0  0  0  0  0
  -12.9281   -5.6907   -3.8562 C   0  0  0  0  0  0  0  0  0  0  0  0
  -14.1446   -6.1584   -3.3086 O   0  0  0  0  0  0  0  0  0  0  0  0
  -14.8459   -5.4111   -2.4896 C   0  0  0  0  0  0  0  0  0  0  0  0
  1  2  2  0
  2  3  1  0
  2 16  1  0
  3  4  1  0
  3  6  2  0
  4  5  1  0
  6  7  1  0
  7 15  1  0
  7  8  1  0
 11 12  1  0
 12 28  1  0
 12 27  1  0
 12 26  1  0
 15 16  1  0
 15 25  2  0
 16 17  1  0
 17 18  1  0
 18 19  1  0
 18 29  1  0
 18 30  1  0
 30 31  1  0
 31 32  1  0
 32 33  2  3
 33 34  1  0
 34 35  1  0
  8  9  2  0
  9 10  1  0
 10 11  2  0
 11 13  1  0
 13 14  2  0
 14  8  1  0
 19 20  2  0
 20 21  1  0
 21 22  2  0
 22 23  1  0
 23 24  2  0
 24 19  1  0
M  END

$$$$
No_44-gen_results_new/Mpro_new_generate_500/2024-01-19-21-58-56/
     RDKit          3D

 31 33  0  0  0  0  0  0  0  0999 V2000
   -9.1300   -2.9100    0.4520 O   0  0  0  0  0  0  0  0  0  0  0  0
  -10.2490   -2.6420    0.1800 C   0  0  0  0  0  0  0  0  0  0  0  0
  -11.3800   -3.0650    1.0860 C   0  0  0  0  0  0  0  0  0  0  0  0
  -11.2000   -3.8390    2.3880 C   0  0  0  0  0  0  0  0  0  0  0  0
  -10.9900   -5.0690    2.3420 N   0  0  0  0  0  0  0  0  0  0  0  0
  -12.7310   -2.7290    0.7330 N   0  0  0  0  0  0  0  0  0  0  0  0
  -12.9960   -1.9940   -0.4510 N   0  0  0  0  0  0  0  0  0  0  0  0
  -14.3580   -1.6940   -0.7530 C   0  0  0  0  0  0  0  0  0  0  0  0
  -15.0390   -0.7180   -0.0560 C   0  0  0  0  0  0  0  0  0  0  0  0
  -16.3510   -0.4690   -0.3980 C   0  0  0  0  0  0  0  0  0  0  0  0
  -16.9430   -1.2030   -1.4080 C   0  0  0  0  0  0  0  0  0  0  0  0
  -18.3840   -0.9560   -1.8060 C   0  0  0  0  0  0  0  0  0  0  0  0
  -16.2510   -2.1690   -2.1000 C   0  0  0  0  0  0  0  0  0  0  0  0
  -14.9490   -2.4160   -1.7590 C   0  0  0  0  0  0  0  0  0  0  0  0
  -11.9050   -1.5730   -1.3540 C   0  0  0  0  0  0  0  0  0  0  0  0
  -10.5280   -1.9050   -1.0240 N   0  0  0  0  0  0  0  0  0  0  0  0
   -9.4550   -1.4720   -1.9190 C   0  0  0  0  0  0  0  0  0  0  0  0
   -9.2820   -2.3940   -3.1270 C   0  0  0  0  0  0  0  0  0  0  0  0
   -7.8170   -2.5500   -3.5360 C   0  0  0  0  0  0  0  0  0  0  0  0
   -6.9720   -3.3210   -2.7550 C   0  0  0  0  0  0  0  0  0  0  0  0
   -5.6390   -3.4770   -3.1110 C   0  0  0  0  0  0  0  0  0  0  0  0
   -5.1940   -2.8390   -4.2640 C   0  0  0  0  0  0  0  0  0  0  0  0
   -6.0850   -2.0780   -5.0070 C   0  0  0  0  0  0  0  0  0  0  0  0
   -7.3470   -1.9600   -4.6270 N   0  0  0  0  0  0  0  0  0  0  0  0
  -12.1450   -0.9640   -2.3390 O   0  0  0  0  0  0  0  0  0  0  0  0
  -18.7610   -1.8760   -2.7390 F   0  0  0  0  0  0  0  0  0  0  0  0
  -18.4550    0.3250   -2.2750 F   0  0  0  0  0  0  0  0  0  0  0  0
  -19.1950   -1.1300   -0.7370 F   0  0  0  0  0  0  0  0  0  0  0  0
  -10.1861   -2.0270   -4.5221 S   0  0  0  0  0  0  0  0  0  0  0  0
  -11.2503   -3.4188   -4.5381 C   0  0  0  0  0  0  0  0  0  0  0  0
  -10.2597   -1.1544   -5.3156 O   0  0  0  0  0  0  0  0  0  0  0  0
  1  2  2  0
  2  3  1  0
  2 16  1  0
  3  4  1  0
  3  6  2  0
  4  5  1  0
  6  7  1  0
  7 15  1  0
  7  8  1  0
 11 12  1  0
 12 28  1  0
 12 27  1  0
 12 26  1  0
 15 16  1  0
 15 25  2  0
 16 17  1  0
 17 18  1  0
 18 19  1  0
 18 29  1  0
 29 30  1  0
 29 31  2  0
  8  9  2  0
  9 10  1  0
 10 11  2  0
 11 13  1  0
 13 14  2  0
 14  8  1  0
 19 20  2  0
 20 21  1  0
 21 22  2  0
 22 23  1  0
 23 24  2  0
 24 19  1  0
M  END

$$$$
No_45-gen_results_new/Mpro_new_generate_500/2024-01-19-21-58-56/
     RDKit          3D

 31 33  0  0  0  0  0  0  0  0999 V2000
   -9.1300   -2.9100    0.4520 O   0  0  0  0  0  0  0  0  0  0  0  0
  -10.2490   -2.6420    0.1800 C   0  0  0  0  0  0  0  0  0  0  0  0
  -11.3800   -3.0650    1.0860 C   0  0  0  0  0  0  0  0  0  0  0  0
  -11.2000   -3.8390    2.3880 C   0  0  0  0  0  0  0  0  0  0  0  0
  -10.9900   -5.0690    2.3420 N   0  0  0  0  0  0  0  0  0  0  0  0
  -12.7310   -2.7290    0.7330 N   0  0  0  0  0  0  0  0  0  0  0  0
  -12.9960   -1.9940   -0.4510 N   0  0  0  0  0  0  0  0  0  0  0  0
  -14.3580   -1.6940   -0.7530 C   0  0  0  0  0  0  0  0  0  0  0  0
  -15.0390   -0.7180   -0.0560 C   0  0  0  0  0  0  0  0  0  0  0  0
  -16.3510   -0.4690   -0.3980 C   0  0  0  0  0  0  0  0  0  0  0  0
  -16.9430   -1.2030   -1.4080 C   0  0  0  0  0  0  0  0  0  0  0  0
  -18.3840   -0.9560   -1.8060 C   0  0  0  0  0  0  0  0  0  0  0  0
  -16.2510   -2.1690   -2.1000 C   0  0  0  0  0  0  0  0  0  0  0  0
  -14.9490   -2.4160   -1.7590 C   0  0  0  0  0  0  0  0  0  0  0  0
  -11.9050   -1.5730   -1.3540 C   0  0  0  0  0  0  0  0  0  0  0  0
  -10.5280   -1.9050   -1.0240 N   0  0  0  0  0  0  0  0  0  0  0  0
   -9.4550   -1.4720   -1.9190 C   0  0  0  0  0  0  0  0  0  0  0  0
   -9.2820   -2.3940   -3.1270 C   0  0  0  0  0  0  0  0  0  0  0  0
   -7.8170   -2.5500   -3.5360 C   0  0  0  0  0  0  0  0  0  0  0  0
   -6.9720   -3.3210   -2.7550 C   0  0  0  0  0  0  0  0  0  0  0  0
   -5.6390   -3.4770   -3.1110 C   0  0  0  0  0  0  0  0  0  0  0  0
   -5.1940   -2.8390   -4.2640 C   0  0  0  0  0  0  0  0  0  0  0  0
   -6.0850   -2.0780   -5.0070 C   0  0  0  0  0  0  0  0  0  0  0  0
   -7.3470   -1.9600   -4.6270 N   0  0  0  0  0  0  0  0  0  0  0  0
  -12.1450   -0.9640   -2.3390 O   0  0  0  0  0  0  0  0  0  0  0  0
  -18.7610   -1.8760   -2.7390 F   0  0  0  0  0  0  0  0  0  0  0  0
  -18.4550    0.3250   -2.2750 F   0  0  0  0  0  0  0  0  0  0  0  0
  -19.1950   -1.1300   -0.7370 F   0  0  0  0  0  0  0  0  0  0  0  0
  -10.1467   -3.0903   -3.8357 C   0  0  0  0  0  0  0  0  0  0  0  0
  -10.1748   -2.6832   -3.5186 O   0  0  0  0  0  0  0  0  0  0  0  0
  -10.3765   -2.3268   -4.6334 C   0  0  0  0  0  0  0  0  0  0  0  0
  1  2  2  0
  2  3  1  0
  2 16  1  0
  3  4  1  0
  3  6  2  0
  4  5  1  0
  6  7  1  0
  7 15  1  0
  7  8  1  0
 11 12  1  0
 12 28  1  0
 12 27  1  0
 12 26  1  0
 15 16  1  0
 15 25  2  0
 16 17  1  0
 17 18  1  0
 18 19  1  0
 18 29  1  0
 29 30  1  0
 30 31  1  0
  8  9  2  0
  9 10  1  0
 10 11  2  0
 11 13  1  0
 13 14  2  0
 14  8  1  0
 19 20  2  0
 20 21  1  0
 21 22  2  0
 22 23  1  0
 23 24  2  0
 24 19  1  0
M  END

$$$$
No_46-gen_results_new/Mpro_new_generate_500/2024-01-19-21-58-56/
     RDKit          3D

 32 34  0  0  0  0  0  0  0  0999 V2000
   -9.1300   -2.9100    0.4520 O   0  0  0  0  0  0  0  0  0  0  0  0
  -10.2490   -2.6420    0.1800 C   0  0  0  0  0  0  0  0  0  0  0  0
  -11.3800   -3.0650    1.0860 C   0  0  0  0  0  0  0  0  0  0  0  0
  -11.2000   -3.8390    2.3880 C   0  0  0  0  0  0  0  0  0  0  0  0
  -10.9900   -5.0690    2.3420 N   0  0  0  0  0  0  0  0  0  0  0  0
  -12.7310   -2.7290    0.7330 N   0  0  0  0  0  0  0  0  0  0  0  0
  -12.9960   -1.9940   -0.4510 N   0  0  0  0  0  0  0  0  0  0  0  0
  -14.3580   -1.6940   -0.7530 C   0  0  0  0  0  0  0  0  0  0  0  0
  -15.0390   -0.7180   -0.0560 C   0  0  0  0  0  0  0  0  0  0  0  0
  -16.3510   -0.4690   -0.3980 C   0  0  0  0  0  0  0  0  0  0  0  0
  -16.9430   -1.2030   -1.4080 C   0  0  0  0  0  0  0  0  0  0  0  0
  -18.3840   -0.9560   -1.8060 C   0  0  0  0  0  0  0  0  0  0  0  0
  -16.2510   -2.1690   -2.1000 C   0  0  0  0  0  0  0  0  0  0  0  0
  -14.9490   -2.4160   -1.7590 C   0  0  0  0  0  0  0  0  0  0  0  0
  -11.9050   -1.5730   -1.3540 C   0  0  0  0  0  0  0  0  0  0  0  0
  -10.5280   -1.9050   -1.0240 N   0  0  0  0  0  0  0  0  0  0  0  0
   -9.4550   -1.4720   -1.9190 C   0  0  0  0  0  0  0  0  0  0  0  0
   -9.2820   -2.3940   -3.1270 C   0  0  0  0  0  0  0  0  0  0  0  0
   -7.8170   -2.5500   -3.5360 C   0  0  0  0  0  0  0  0  0  0  0  0
   -6.9720   -3.3210   -2.7550 C   0  0  0  0  0  0  0  0  0  0  0  0
   -5.6390   -3.4770   -3.1110 C   0  0  0  0  0  0  0  0  0  0  0  0
   -5.1940   -2.8390   -4.2640 C   0  0  0  0  0  0  0  0  0  0  0  0
   -6.0850   -2.0780   -5.0070 C   0  0  0  0  0  0  0  0  0  0  0  0
   -7.3470   -1.9600   -4.6270 N   0  0  0  0  0  0  0  0  0  0  0  0
  -12.1450   -0.9640   -2.3390 O   0  0  0  0  0  0  0  0  0  0  0  0
  -18.7610   -1.8760   -2.7390 F   0  0  0  0  0  0  0  0  0  0  0  0
  -18.4550    0.3250   -2.2750 F   0  0  0  0  0  0  0  0  0  0  0  0
  -19.1950   -1.1300   -0.7370 F   0  0  0  0  0  0  0  0  0  0  0  0
   -9.9397   -3.9796   -2.9011 S   0  0  0  0  0  0  0  0  0  0  0  0
   -9.7673   -4.7393   -2.0214 O   0  0  0  0  0  0  0  0  0  0  0  0
  -11.6964   -3.8783   -3.3755 C   0  0  0  0  0  0  0  0  0  0  0  0
   -9.3342   -5.4555   -4.0365 S   0  0  0  0  0  0  0  0  0  0  0  0
  1  2  2  0
  2  3  1  0
  2 16  1  0
  3  4  1  0
  3  6  2  0
  4  5  1  0
  6  7  1  0
  7 15  1  0
  7  8  1  0
 11 12  1  0
 12 28  1  0
 12 27  1  0
 12 26  1  0
 15 16  1  0
 15 25  2  0
 16 17  1  0
 17 18  1  0
 18 19  1  0
 18 29  1  0
 29 30  2  0
 29 31  1  0
 29 32  2  0
  8  9  2  0
  9 10  1  0
 10 11  2  0
 11 13  1  0
 13 14  2  0
 14  8  1  0
 19 20  2  0
 20 21  1  0
 21 22  2  0
 22 23  1  0
 23 24  2  0
 24 19  1  0
M  END

$$$$
No_47-gen_results_new/Mpro_new_generate_500/2024-01-19-21-58-56/
     RDKit          3D

 35 38  0  0  0  0  0  0  0  0999 V2000
   -9.1300   -2.9100    0.4520 O   0  0  0  0  0  0  0  0  0  0  0  0
  -10.2490   -2.6420    0.1800 C   0  0  0  0  0  0  0  0  0  0  0  0
  -11.3800   -3.0650    1.0860 C   0  0  0  0  0  0  0  0  0  0  0  0
  -11.2000   -3.8390    2.3880 C   0  0  0  0  0  0  0  0  0  0  0  0
  -10.9900   -5.0690    2.3420 N   0  0  0  0  0  0  0  0  0  0  0  0
  -12.7310   -2.7290    0.7330 N   0  0  0  0  0  0  0  0  0  0  0  0
  -12.9960   -1.9940   -0.4510 N   0  0  0  0  0  0  0  0  0  0  0  0
  -14.3580   -1.6940   -0.7530 C   0  0  0  0  0  0  0  0  0  0  0  0
  -15.0390   -0.7180   -0.0560 C   0  0  0  0  0  0  0  0  0  0  0  0
  -16.3510   -0.4690   -0.3980 C   0  0  0  0  0  0  0  0  0  0  0  0
  -16.9430   -1.2030   -1.4080 C   0  0  0  0  0  0  0  0  0  0  0  0
  -18.3840   -0.9560   -1.8060 C   0  0  0  0  0  0  0  0  0  0  0  0
  -16.2510   -2.1690   -2.1000 C   0  0  0  0  0  0  0  0  0  0  0  0
  -14.9490   -2.4160   -1.7590 C   0  0  0  0  0  0  0  0  0  0  0  0
  -11.9050   -1.5730   -1.3540 C   0  0  0  0  0  0  0  0  0  0  0  0
  -10.5280   -1.9050   -1.0240 N   0  0  0  0  0  0  0  0  0  0  0  0
   -9.4550   -1.4720   -1.9190 C   0  0  0  0  0  0  0  0  0  0  0  0
   -9.2820   -2.3940   -3.1270 C   0  0  0  0  0  0  0  0  0  0  0  0
   -7.8170   -2.5500   -3.5360 C   0  0  0  0  0  0  0  0  0  0  0  0
   -6.9720   -3.3210   -2.7550 C   0  0  0  0  0  0  0  0  0  0  0  0
   -5.6390   -3.4770   -3.1110 C   0  0  0  0  0  0  0  0  0  0  0  0
   -5.1940   -2.8390   -4.2640 C   0  0  0  0  0  0  0  0  0  0  0  0
   -6.0850   -2.0780   -5.0070 C   0  0  0  0  0  0  0  0  0  0  0  0
   -7.3470   -1.9600   -4.6270 N   0  0  0  0  0  0  0  0  0  0  0  0
  -12.1450   -0.9640   -2.3390 O   0  0  0  0  0  0  0  0  0  0  0  0
  -18.7610   -1.8760   -2.7390 F   0  0  0  0  0  0  0  0  0  0  0  0
  -18.4550    0.3250   -2.2750 F   0  0  0  0  0  0  0  0  0  0  0  0
  -19.1950   -1.1300   -0.7370 F   0  0  0  0  0  0  0  0  0  0  0  0
  -10.0453   -2.0069   -4.3181 C   0  0  0  0  0  0  0  0  0  0  0  0
   -9.8476   -3.8948   -2.8015 C   0  0  0  0  0  0  0  0  0  0  0  0
  -10.1714   -4.7331   -3.9309 C   0  0  0  0  0  0  0  0  0  0  0  0
  -10.6131   -4.1472   -4.9938 O   0  0  0  0  0  0  0  0  0  0  0  0
  -10.9143   -2.8234   -5.0615 C   0  0  0  0  0  0  0  0  0  0  0  0
  -11.3762   -2.3636   -6.2856 O   0  0  0  0  0  0  0  0  0  0  0  0
  -11.0019   -1.4341   -6.7872 C   0  0  0  0  0  0  0  0  0  0  0  0
  1  2  2  0
  2  3  1  0
  2 16  1  0
  3  4  1  0
  3  6  2  0
  4  5  1  0
  6  7  1  0
  7 15  1  0
  7  8  1  0
 11 12  1  0
 12 28  1  0
 12 27  1  0
 12 26  1  0
 15 16  1  0
 15 25  2  0
 16 17  1  0
 17 18  1  0
 18 19  1  0
 18 29  1  0
 18 30  1  0
 30 31  2  0
 31 32  1  0
 29 33  2  0
 32 33  1  0
 33 34  1  0
 34 35  1  0
  8  9  2  0
  9 10  1  0
 10 11  2  0
 11 13  1  0
 13 14  2  0
 14  8  1  0
 19 20  2  0
 20 21  1  0
 21 22  2  0
 22 23  1  0
 23 24  2  0
 24 19  1  0
M  END

$$$$
No_48-gen_results_new/Mpro_new_generate_500/2024-01-19-21-58-56/
     RDKit          3D

 32 34  0  0  0  0  0  0  0  0999 V2000
   -9.1300   -2.9100    0.4520 O   0  0  0  0  0  0  0  0  0  0  0  0
  -10.2490   -2.6420    0.1800 C   0  0  0  0  0  0  0  0  0  0  0  0
  -11.3800   -3.0650    1.0860 C   0  0  0  0  0  0  0  0  0  0  0  0
  -11.2000   -3.8390    2.3880 C   0  0  0  0  0  0  0  0  0  0  0  0
  -10.9900   -5.0690    2.3420 N   0  0  0  0  0  0  0  0  0  0  0  0
  -12.7310   -2.7290    0.7330 N   0  0  0  0  0  0  0  0  0  0  0  0
  -12.9960   -1.9940   -0.4510 N   0  0  0  0  0  0  0  0  0  0  0  0
  -14.3580   -1.6940   -0.7530 C   0  0  0  0  0  0  0  0  0  0  0  0
  -15.0390   -0.7180   -0.0560 C   0  0  0  0  0  0  0  0  0  0  0  0
  -16.3510   -0.4690   -0.3980 C   0  0  0  0  0  0  0  0  0  0  0  0
  -16.9430   -1.2030   -1.4080 C   0  0  0  0  0  0  0  0  0  0  0  0
  -18.3840   -0.9560   -1.8060 C   0  0  0  0  0  0  0  0  0  0  0  0
  -16.2510   -2.1690   -2.1000 C   0  0  0  0  0  0  0  0  0  0  0  0
  -14.9490   -2.4160   -1.7590 C   0  0  0  0  0  0  0  0  0  0  0  0
  -11.9050   -1.5730   -1.3540 C   0  0  0  0  0  0  0  0  0  0  0  0
  -10.5280   -1.9050   -1.0240 N   0  0  0  0  0  0  0  0  0  0  0  0
   -9.4550   -1.4720   -1.9190 C   0  0  0  0  0  0  0  0  0  0  0  0
   -9.2820   -2.3940   -3.1270 C   0  0  0  0  0  0  0  0  0  0  0  0
   -7.8170   -2.5500   -3.5360 C   0  0  0  0  0  0  0  0  0  0  0  0
   -6.9720   -3.3210   -2.7550 C   0  0  0  0  0  0  0  0  0  0  0  0
   -5.6390   -3.4770   -3.1110 C   0  0  0  0  0  0  0  0  0  0  0  0
   -5.1940   -2.8390   -4.2640 C   0  0  0  0  0  0  0  0  0  0  0  0
   -6.0850   -2.0780   -5.0070 C   0  0  0  0  0  0  0  0  0  0  0  0
   -7.3470   -1.9600   -4.6270 N   0  0  0  0  0  0  0  0  0  0  0  0
  -12.1450   -0.9640   -2.3390 O   0  0  0  0  0  0  0  0  0  0  0  0
  -18.7610   -1.8760   -2.7390 F   0  0  0  0  0  0  0  0  0  0  0  0
  -18.4550    0.3250   -2.2750 F   0  0  0  0  0  0  0  0  0  0  0  0
  -19.1950   -1.1300   -0.7370 F   0  0  0  0  0  0  0  0  0  0  0  0
  -10.0122   -2.0535   -4.1781 O   0  0  0  0  0  0  0  0  0  0  0  0
   -9.8786   -3.6143   -3.1098 F   0  0  0  0  0  0  0  0  0  0  0  0
  -10.8413   -3.0684   -4.9993 C   0  0  0  0  0  0  0  0  0  0  0  0
  -11.1571   -4.4156   -4.9942 C   0  0  0  0  0  0  0  0  0  0  0  0
  1  2  2  0
  2  3  1  0
  2 16  1  0
  3  4  1  0
  3  6  2  0
  4  5  1  0
  6  7  1  0
  7 15  1  0
  7  8  1  0
 11 12  1  0
 12 28  1  0
 12 27  1  0
 12 26  1  0
 15 16  1  0
 15 25  2  0
 16 17  1  0
 17 18  1  0
 18 19  1  0
 18 29  1  0
 18 30  1  0
 29 31  1  0
 31 32  1  0
  8  9  2  0
  9 10  1  0
 10 11  2  0
 11 13  1  0
 13 14  2  0
 14  8  1  0
 19 20  2  0
 20 21  1  0
 21 22  2  0
 22 23  1  0
 23 24  2  0
 24 19  1  0
M  END

$$$$
No_49-gen_results_new/Mpro_new_generate_500/2024-01-19-21-58-56/
     RDKit          3D

 33 35  0  0  0  0  0  0  0  0999 V2000
   -9.1300   -2.9100    0.4520 O   0  0  0  0  0  0  0  0  0  0  0  0
  -10.2490   -2.6420    0.1800 C   0  0  0  0  0  0  0  0  0  0  0  0
  -11.3800   -3.0650    1.0860 C   0  0  0  0  0  0  0  0  0  0  0  0
  -11.2000   -3.8390    2.3880 C   0  0  0  0  0  0  0  0  0  0  0  0
  -10.9900   -5.0690    2.3420 N   0  0  0  0  0  0  0  0  0  0  0  0
  -12.7310   -2.7290    0.7330 N   0  0  0  0  0  0  0  0  0  0  0  0
  -12.9960   -1.9940   -0.4510 N   0  0  0  0  0  0  0  0  0  0  0  0
  -14.3580   -1.6940   -0.7530 C   0  0  0  0  0  0  0  0  0  0  0  0
  -15.0390   -0.7180   -0.0560 C   0  0  0  0  0  0  0  0  0  0  0  0
  -16.3510   -0.4690   -0.3980 C   0  0  0  0  0  0  0  0  0  0  0  0
  -16.9430   -1.2030   -1.4080 C   0  0  0  0  0  0  0  0  0  0  0  0
  -18.3840   -0.9560   -1.8060 C   0  0  0  0  0  0  0  0  0  0  0  0
  -16.2510   -2.1690   -2.1000 C   0  0  0  0  0  0  0  0  0  0  0  0
  -14.9490   -2.4160   -1.7590 C   0  0  0  0  0  0  0  0  0  0  0  0
  -11.9050   -1.5730   -1.3540 C   0  0  0  0  0  0  0  0  0  0  0  0
  -10.5280   -1.9050   -1.0240 N   0  0  0  0  0  0  0  0  0  0  0  0
   -9.4550   -1.4720   -1.9190 C   0  0  0  0  0  0  0  0  0  0  0  0
   -9.2820   -2.3940   -3.1270 C   0  0  0  0  0  0  0  0  0  0  0  0
   -7.8170   -2.5500   -3.5360 C   0  0  0  0  0  0  0  0  0  0  0  0
   -6.9720   -3.3210   -2.7550 C   0  0  0  0  0  0  0  0  0  0  0  0
   -5.6390   -3.4770   -3.1110 C   0  0  0  0  0  0  0  0  0  0  0  0
   -5.1940   -2.8390   -4.2640 C   0  0  0  0  0  0  0  0  0  0  0  0
   -6.0850   -2.0780   -5.0070 C   0  0  0  0  0  0  0  0  0  0  0  0
   -7.3470   -1.9600   -4.6270 N   0  0  0  0  0  0  0  0  0  0  0  0
  -12.1450   -0.9640   -2.3390 O   0  0  0  0  0  0  0  0  0  0  0  0
  -18.7610   -1.8760   -2.7390 F   0  0  0  0  0  0  0  0  0  0  0  0
  -18.4550    0.3250   -2.2750 F   0  0  0  0  0  0  0  0  0  0  0  0
  -19.1950   -1.1300   -0.7370 F   0  0  0  0  0  0  0  0  0  0  0  0
   -9.7920   -3.7475   -2.8656 C   0  0  0  0  0  0  0  0  0  0  0  0
  -10.0717   -1.8029   -4.3549 C   0  0  0  0  0  0  0  0  0  0  0  0
  -10.1499   -4.7026   -4.4192 S   0  0  0  0  0  0  0  0  0  0  0  0
  -11.5393   -4.5977   -4.4918 O   0  0  0  0  0  0  0  0  0  0  0  0
   -9.1157   -5.9776   -5.1299 S   0  0  0  0  0  0  0  0  0  0  0  0
  1  2  2  0
  2  3  1  0
  2 16  1  0
  3  4  1  0
  3  6  2  0
  4  5  1  0
  6  7  1  0
  7 15  1  0
  7  8  1  0
 11 12  1  0
 12 28  1  0
 12 27  1  0
 12 26  1  0
 15 16  1  0
 15 25  2  0
 16 17  1  0
 17 18  1  0
 18 19  1  0
 18 29  1  0
 18 30  1  0
 29 31  1  0
 31 32  2  0
 31 33  2  0
  8  9  2  0
  9 10  1  0
 10 11  2  0
 11 13  1  0
 13 14  2  0
 14  8  1  0
 19 20  2  0
 20 21  1  0
 21 22  2  0
 22 23  1  0
 23 24  2  0
 24 19  1  0
M  END

$$$$
No_50-gen_results_new/Mpro_new_generate_500/2024-01-19-21-58-56/
     RDKit          3D

 35 38  0  0  0  0  0  0  0  0999 V2000
   -9.1300   -2.9100    0.4520 O   0  0  0  0  0  0  0  0  0  0  0  0
  -10.2490   -2.6420    0.1800 C   0  0  0  0  0  0  0  0  0  0  0  0
  -11.3800   -3.0650    1.0860 C   0  0  0  0  0  0  0  0  0  0  0  0
  -11.2000   -3.8390    2.3880 C   0  0  0  0  0  0  0  0  0  0  0  0
  -10.9900   -5.0690    2.3420 N   0  0  0  0  0  0  0  0  0  0  0  0
  -12.7310   -2.7290    0.7330 N   0  0  0  0  0  0  0  0  0  0  0  0
  -12.9960   -1.9940   -0.4510 N   0  0  0  0  0  0  0  0  0  0  0  0
  -14.3580   -1.6940   -0.7530 C   0  0  0  0  0  0  0  0  0  0  0  0
  -15.0390   -0.7180   -0.0560 C   0  0  0  0  0  0  0  0  0  0  0  0
  -16.3510   -0.4690   -0.3980 C   0  0  0  0  0  0  0  0  0  0  0  0
  -16.9430   -1.2030   -1.4080 C   0  0  0  0  0  0  0  0  0  0  0  0
  -18.3840   -0.9560   -1.8060 C   0  0  0  0  0  0  0  0  0  0  0  0
  -16.2510   -2.1690   -2.1000 C   0  0  0  0  0  0  0  0  0  0  0  0
  -14.9490   -2.4160   -1.7590 C   0  0  0  0  0  0  0  0  0  0  0  0
  -11.9050   -1.5730   -1.3540 C   0  0  0  0  0  0  0  0  0  0  0  0
  -10.5280   -1.9050   -1.0240 N   0  0  0  0  0  0  0  0  0  0  0  0
   -9.4550   -1.4720   -1.9190 C   0  0  0  0  0  0  0  0  0  0  0  0
   -9.2820   -2.3940   -3.1270 C   0  0  0  0  0  0  0  0  0  0  0  0
   -7.8170   -2.5500   -3.5360 C   0  0  0  0  0  0  0  0  0  0  0  0
   -6.9720   -3.3210   -2.7550 C   0  0  0  0  0  0  0  0  0  0  0  0
   -5.6390   -3.4770   -3.1110 C   0  0  0  0  0  0  0  0  0  0  0  0
   -5.1940   -2.8390   -4.2640 C   0  0  0  0  0  0  0  0  0  0  0  0
   -6.0850   -2.0780   -5.0070 C   0  0  0  0  0  0  0  0  0  0  0  0
   -7.3470   -1.9600   -4.6270 N   0  0  0  0  0  0  0  0  0  0  0  0
  -12.1450   -0.9640   -2.3390 O   0  0  0  0  0  0  0  0  0  0  0  0
  -18.7610   -1.8760   -2.7390 F   0  0  0  0  0  0  0  0  0  0  0  0
  -18.4550    0.3250   -2.2750 F   0  0  0  0  0  0  0  0  0  0  0  0
  -19.1950   -1.1300   -0.7370 F   0  0  0  0  0  0  0  0  0  0  0  0
  -10.0453   -2.0069   -4.3181 C   0  0  0  0  0  0  0  0  0  0  0  0
   -9.8476   -3.8948   -2.8015 C   0  0  0  0  0  0  0  0  0  0  0  0
  -10.1714   -4.7331   -3.9309 C   0  0  0  0  0  0  0  0  0  0  0  0
  -10.7318   -3.9946   -5.1407 C   0  0  0  0  0  0  0  0  0  0  0  0
  -10.7428   -2.6946   -5.1867 C   0  0  0  0  0  0  0  0  0  0  0  0
  -11.4005   -4.8514   -5.9744 O   0  0  0  0  0  0  0  0  0  0  0  0
  -12.6265   -5.1487   -6.2294 C   0  0  0  0  0  0  0  0  0  0  0  0
  1  2  2  0
  2  3  1  0
  2 16  1  0
  3  4  1  0
  3  6  2  0
  4  5  1  0
  6  7  1  0
  7 15  1  0
  7  8  1  0
 11 12  1  0
 12 28  1  0
 12 27  1  0
 12 26  1  0
 15 16  1  0
 15 25  2  0
 16 17  1  0
 17 18  1  0
 18 19  1  0
 18 29  1  0
 18 30  1  0
 31 32  1  0
 29 33  1  0
 32 34  1  0
 34 35  1  0
 33 32  1  0
 31 30  1  0
  8  9  2  0
  9 10  1  0
 10 11  2  0
 11 13  1  0
 13 14  2  0
 14  8  1  0
 19 20  2  0
 20 21  1  0
 21 22  2  0
 22 23  1  0
 23 24  2  0
 24 19  1  0
M  END

$$$$
No_51-gen_results_new/Mpro_new_generate_500/2024-01-19-21-58-56/
     RDKit          3D

 32 34  0  0  0  0  0  0  0  0999 V2000
   -9.1300   -2.9100    0.4520 O   0  0  0  0  0  0  0  0  0  0  0  0
  -10.2490   -2.6420    0.1800 C   0  0  0  0  0  0  0  0  0  0  0  0
  -11.3800   -3.0650    1.0860 C   0  0  0  0  0  0  0  0  0  0  0  0
  -11.2000   -3.8390    2.3880 C   0  0  0  0  0  0  0  0  0  0  0  0
  -10.9900   -5.0690    2.3420 N   0  0  0  0  0  0  0  0  0  0  0  0
  -12.7310   -2.7290    0.7330 N   0  0  0  0  0  0  0  0  0  0  0  0
  -12.9960   -1.9940   -0.4510 N   0  0  0  0  0  0  0  0  0  0  0  0
  -14.3580   -1.6940   -0.7530 C   0  0  0  0  0  0  0  0  0  0  0  0
  -15.0390   -0.7180   -0.0560 C   0  0  0  0  0  0  0  0  0  0  0  0
  -16.3510   -0.4690   -0.3980 C   0  0  0  0  0  0  0  0  0  0  0  0
  -16.9430   -1.2030   -1.4080 C   0  0  0  0  0  0  0  0  0  0  0  0
  -18.3840   -0.9560   -1.8060 C   0  0  0  0  0  0  0  0  0  0  0  0
  -16.2510   -2.1690   -2.1000 C   0  0  0  0  0  0  0  0  0  0  0  0
  -14.9490   -2.4160   -1.7590 C   0  0  0  0  0  0  0  0  0  0  0  0
  -11.9050   -1.5730   -1.3540 C   0  0  0  0  0  0  0  0  0  0  0  0
  -10.5280   -1.9050   -1.0240 N   0  0  0  0  0  0  0  0  0  0  0  0
   -9.4550   -1.4720   -1.9190 C   0  0  0  0  0  0  0  0  0  0  0  0
   -9.2820   -2.3940   -3.1270 C   0  0  0  0  0  0  0  0  0  0  0  0
   -7.8170   -2.5500   -3.5360 C   0  0  0  0  0  0  0  0  0  0  0  0
   -6.9720   -3.3210   -2.7550 C   0  0  0  0  0  0  0  0  0  0  0  0
   -5.6390   -3.4770   -3.1110 C   0  0  0  0  0  0  0  0  0  0  0  0
   -5.1940   -2.8390   -4.2640 C   0  0  0  0  0  0  0  0  0  0  0  0
   -6.0850   -2.0780   -5.0070 C   0  0  0  0  0  0  0  0  0  0  0  0
   -7.3470   -1.9600   -4.6270 N   0  0  0  0  0  0  0  0  0  0  0  0
  -12.1450   -0.9640   -2.3390 O   0  0  0  0  0  0  0  0  0  0  0  0
  -18.7610   -1.8760   -2.7390 F   0  0  0  0  0  0  0  0  0  0  0  0
  -18.4550    0.3250   -2.2750 F   0  0  0  0  0  0  0  0  0  0  0  0
  -19.1950   -1.1300   -0.7370 F   0  0  0  0  0  0  0  0  0  0  0  0
  -10.1467   -3.0903   -3.8357 C   0  0  0  0  0  0  0  0  0  0  0  0
  -10.1681   -2.5855   -3.6007 C   0  0  0  0  0  0  0  0  0  0  0  0
  -10.4499   -1.5957   -4.9129 C   0  0  0  0  0  0  0  0  0  0  0  0
  -11.5164   -3.5393   -3.6456 C   0  0  0  0  0  0  0  0  0  0  0  0
  1  2  2  0
  2  3  1  0
  2 16  1  0
  3  4  1  0
  3  6  2  0
  4  5  1  0
  6  7  1  0
  7 15  1  0
  7  8  1  0
 11 12  1  0
 12 28  1  0
 12 27  1  0
 12 26  1  0
 15 16  1  0
 15 25  2  0
 16 17  1  0
 17 18  1  0
 18 19  1  0
 18 29  1  0
 29 30  1  0
 30 31  2  0
 29 32  1  0
  8  9  2  0
  9 10  1  0
 10 11  2  0
 11 13  1  0
 13 14  2  0
 14  8  1  0
 19 20  2  0
 20 21  1  0
 21 22  2  0
 22 23  1  0
 23 24  2  0
 24 19  1  0
M  END

$$$$
No_52-gen_results_new/Mpro_new_generate_500/2024-01-19-21-58-56/
     RDKit          3D

 32 34  0  0  0  0  0  0  0  0999 V2000
   -9.1300   -2.9100    0.4520 O   0  0  0  0  0  0  0  0  0  0  0  0
  -10.2490   -2.6420    0.1800 C   0  0  0  0  0  0  0  0  0  0  0  0
  -11.3800   -3.0650    1.0860 C   0  0  0  0  0  0  0  0  0  0  0  0
  -11.2000   -3.8390    2.3880 C   0  0  0  0  0  0  0  0  0  0  0  0
  -10.9900   -5.0690    2.3420 N   0  0  0  0  0  0  0  0  0  0  0  0
  -12.7310   -2.7290    0.7330 N   0  0  0  0  0  0  0  0  0  0  0  0
  -12.9960   -1.9940   -0.4510 N   0  0  0  0  0  0  0  0  0  0  0  0
  -14.3580   -1.6940   -0.7530 C   0  0  0  0  0  0  0  0  0  0  0  0
  -15.0390   -0.7180   -0.0560 C   0  0  0  0  0  0  0  0  0  0  0  0
  -16.3510   -0.4690   -0.3980 C   0  0  0  0  0  0  0  0  0  0  0  0
  -16.9430   -1.2030   -1.4080 C   0  0  0  0  0  0  0  0  0  0  0  0
  -18.3840   -0.9560   -1.8060 C   0  0  0  0  0  0  0  0  0  0  0  0
  -16.2510   -2.1690   -2.1000 C   0  0  0  0  0  0  0  0  0  0  0  0
  -14.9490   -2.4160   -1.7590 C   0  0  0  0  0  0  0  0  0  0  0  0
  -11.9050   -1.5730   -1.3540 C   0  0  0  0  0  0  0  0  0  0  0  0
  -10.5280   -1.9050   -1.0240 N   0  0  0  0  0  0  0  0  0  0  0  0
   -9.4550   -1.4720   -1.9190 C   0  0  0  0  0  0  0  0  0  0  0  0
   -9.2820   -2.3940   -3.1270 C   0  0  0  0  0  0  0  0  0  0  0  0
   -7.8170   -2.5500   -3.5360 C   0  0  0  0  0  0  0  0  0  0  0  0
   -6.9720   -3.3210   -2.7550 C   0  0  0  0  0  0  0  0  0  0  0  0
   -5.6390   -3.4770   -3.1110 C   0  0  0  0  0  0  0  0  0  0  0  0
   -5.1940   -2.8390   -4.2640 C   0  0  0  0  0  0  0  0  0  0  0  0
   -6.0850   -2.0780   -5.0070 C   0  0  0  0  0  0  0  0  0  0  0  0
   -7.3470   -1.9600   -4.6270 N   0  0  0  0  0  0  0  0  0  0  0  0
  -12.1450   -0.9640   -2.3390 O   0  0  0  0  0  0  0  0  0  0  0  0
  -18.7610   -1.8760   -2.7390 F   0  0  0  0  0  0  0  0  0  0  0  0
  -18.4550    0.3250   -2.2750 F   0  0  0  0  0  0  0  0  0  0  0  0
  -19.1950   -1.1300   -0.7370 F   0  0  0  0  0  0  0  0  0  0  0  0
  -10.1467   -3.0903   -3.8357 C   0  0  0  0  0  0  0  0  0  0  0  0
  -10.1681   -2.5855   -3.6007 C   0  0  0  0  0  0  0  0  0  0  0  0
  -11.4388   -2.8299   -3.7977 C   0  0  0  0  0  0  0  0  0  0  0  0
  -10.3111   -1.4896   -5.0982 Cl  0  0  0  0  0  0  0  0  0  0  0  0
  1  2  2  0
  2  3  1  0
  2 16  1  0
  3  4  1  0
  3  6  2  0
  4  5  1  0
  6  7  1  0
  7 15  1  0
  7  8  1  0
 11 12  1  0
 12 28  1  0
 12 27  1  0
 12 26  1  0
 15 16  1  0
 15 25  2  0
 16 17  1  0
 17 18  1  0
 18 19  1  0
 18 29  1  0
 29 30  2  3
 29 31  1  0
 30 32  1  0
  8  9  2  0
  9 10  1  0
 10 11  2  0
 11 13  1  0
 13 14  2  0
 14  8  1  0
 19 20  2  0
 20 21  1  0
 21 22  2  0
 22 23  1  0
 23 24  2  0
 24 19  1  0
M  END

$$$$
No_53-gen_results_new/Mpro_new_generate_500/2024-01-19-21-58-56/
     RDKit          3D

 34 36  0  0  0  0  0  0  0  0999 V2000
   -9.1300   -2.9100    0.4520 O   0  0  0  0  0  0  0  0  0  0  0  0
  -10.2490   -2.6420    0.1800 C   0  0  0  0  0  0  0  0  0  0  0  0
  -11.3800   -3.0650    1.0860 C   0  0  0  0  0  0  0  0  0  0  0  0
  -11.2000   -3.8390    2.3880 C   0  0  0  0  0  0  0  0  0  0  0  0
  -10.9900   -5.0690    2.3420 N   0  0  0  0  0  0  0  0  0  0  0  0
  -12.7310   -2.7290    0.7330 N   0  0  0  0  0  0  0  0  0  0  0  0
  -12.9960   -1.9940   -0.4510 N   0  0  0  0  0  0  0  0  0  0  0  0
  -14.3580   -1.6940   -0.7530 C   0  0  0  0  0  0  0  0  0  0  0  0
  -15.0390   -0.7180   -0.0560 C   0  0  0  0  0  0  0  0  0  0  0  0
  -16.3510   -0.4690   -0.3980 C   0  0  0  0  0  0  0  0  0  0  0  0
  -16.9430   -1.2030   -1.4080 C   0  0  0  0  0  0  0  0  0  0  0  0
  -18.3840   -0.9560   -1.8060 C   0  0  0  0  0  0  0  0  0  0  0  0
  -16.2510   -2.1690   -2.1000 C   0  0  0  0  0  0  0  0  0  0  0  0
  -14.9490   -2.4160   -1.7590 C   0  0  0  0  0  0  0  0  0  0  0  0
  -11.9050   -1.5730   -1.3540 C   0  0  0  0  0  0  0  0  0  0  0  0
  -10.5280   -1.9050   -1.0240 N   0  0  0  0  0  0  0  0  0  0  0  0
   -9.4550   -1.4720   -1.9190 C   0  0  0  0  0  0  0  0  0  0  0  0
   -9.2820   -2.3940   -3.1270 C   0  0  0  0  0  0  0  0  0  0  0  0
   -7.8170   -2.5500   -3.5360 C   0  0  0  0  0  0  0  0  0  0  0  0
   -6.9720   -3.3210   -2.7550 C   0  0  0  0  0  0  0  0  0  0  0  0
   -5.6390   -3.4770   -3.1110 C   0  0  0  0  0  0  0  0  0  0  0  0
   -5.1940   -2.8390   -4.2640 C   0  0  0  0  0  0  0  0  0  0  0  0
   -6.0850   -2.0780   -5.0070 C   0  0  0  0  0  0  0  0  0  0  0  0
   -7.3470   -1.9600   -4.6270 N   0  0  0  0  0  0  0  0  0  0  0  0
  -12.1450   -0.9640   -2.3390 O   0  0  0  0  0  0  0  0  0  0  0  0
  -18.7610   -1.8760   -2.7390 F   0  0  0  0  0  0  0  0  0  0  0  0
  -18.4550    0.3250   -2.2750 F   0  0  0  0  0  0  0  0  0  0  0  0
  -19.1950   -1.1300   -0.7370 F   0  0  0  0  0  0  0  0  0  0  0  0
   -9.7920   -3.7475   -2.8656 C   0  0  0  0  0  0  0  0  0  0  0  0
  -10.0717   -1.8029   -4.3549 C   0  0  0  0  0  0  0  0  0  0  0  0
  -10.0419   -4.6597   -4.1091 C   0  0  0  0  0  0  0  0  0  0  0  0
  -11.7843   -4.7838   -4.5437 S   0  0  0  0  0  0  0  0  0  0  0  0
  -12.6323   -5.3752   -3.5260 O   0  0  0  0  0  0  0  0  0  0  0  0
  -11.9233   -5.5655   -5.8062 O   0  0  0  0  0  0  0  0  0  0  0  0
  1  2  2  0
  2  3  1  0
  2 16  1  0
  3  4  1  0
  3  6  2  0
  4  5  1  0
  6  7  1  0
  7 15  1  0
  7  8  1  0
 11 12  1  0
 12 28  1  0
 12 27  1  0
 12 26  1  0
 15 16  1  0
 15 25  2  0
 16 17  1  0
 17 18  1  0
 18 19  1  0
 18 29  1  0
 18 30  1  0
 29 31  1  0
 31 32  1  0
 32 33  2  0
 32 34  2  0
  8  9  2  0
  9 10  1  0
 10 11  2  0
 11 13  1  0
 13 14  2  0
 14  8  1  0
 19 20  2  0
 20 21  1  0
 21 22  2  0
 22 23  1  0
 23 24  2  0
 24 19  1  0
M  END

$$$$
No_54-gen_results_new/Mpro_new_generate_500/2024-01-19-21-58-56/
     RDKit          3D

 31 33  0  0  0  0  0  0  0  0999 V2000
   -9.1300   -2.9100    0.4520 O   0  0  0  0  0  0  0  0  0  0  0  0
  -10.2490   -2.6420    0.1800 C   0  0  0  0  0  0  0  0  0  0  0  0
  -11.3800   -3.0650    1.0860 C   0  0  0  0  0  0  0  0  0  0  0  0
  -11.2000   -3.8390    2.3880 C   0  0  0  0  0  0  0  0  0  0  0  0
  -10.9900   -5.0690    2.3420 N   0  0  0  0  0  0  0  0  0  0  0  0
  -12.7310   -2.7290    0.7330 N   0  0  0  0  0  0  0  0  0  0  0  0
  -12.9960   -1.9940   -0.4510 N   0  0  0  0  0  0  0  0  0  0  0  0
  -14.3580   -1.6940   -0.7530 C   0  0  0  0  0  0  0  0  0  0  0  0
  -15.0390   -0.7180   -0.0560 C   0  0  0  0  0  0  0  0  0  0  0  0
  -16.3510   -0.4690   -0.3980 C   0  0  0  0  0  0  0  0  0  0  0  0
  -16.9430   -1.2030   -1.4080 C   0  0  0  0  0  0  0  0  0  0  0  0
  -18.3840   -0.9560   -1.8060 C   0  0  0  0  0  0  0  0  0  0  0  0
  -16.2510   -2.1690   -2.1000 C   0  0  0  0  0  0  0  0  0  0  0  0
  -14.9490   -2.4160   -1.7590 C   0  0  0  0  0  0  0  0  0  0  0  0
  -11.9050   -1.5730   -1.3540 C   0  0  0  0  0  0  0  0  0  0  0  0
  -10.5280   -1.9050   -1.0240 N   0  0  0  0  0  0  0  0  0  0  0  0
   -9.4550   -1.4720   -1.9190 C   0  0  0  0  0  0  0  0  0  0  0  0
   -9.2820   -2.3940   -3.1270 C   0  0  0  0  0  0  0  0  0  0  0  0
   -7.8170   -2.5500   -3.5360 C   0  0  0  0  0  0  0  0  0  0  0  0
   -6.9720   -3.3210   -2.7550 C   0  0  0  0  0  0  0  0  0  0  0  0
   -5.6390   -3.4770   -3.1110 C   0  0  0  0  0  0  0  0  0  0  0  0
   -5.1940   -2.8390   -4.2640 C   0  0  0  0  0  0  0  0  0  0  0  0
   -6.0850   -2.0780   -5.0070 C   0  0  0  0  0  0  0  0  0  0  0  0
   -7.3470   -1.9600   -4.6270 N   0  0  0  0  0  0  0  0  0  0  0  0
  -12.1450   -0.9640   -2.3390 O   0  0  0  0  0  0  0  0  0  0  0  0
  -18.7610   -1.8760   -2.7390 F   0  0  0  0  0  0  0  0  0  0  0  0
  -18.4550    0.3250   -2.2750 F   0  0  0  0  0  0  0  0  0  0  0  0
  -19.1950   -1.1300   -0.7370 F   0  0  0  0  0  0  0  0  0  0  0  0
  -10.1467   -3.0903   -3.8357 C   0  0  0  0  0  0  0  0  0  0  0  0
  -10.3179   -2.6325   -3.8272 S   0  0  0  0  0  0  0  0  0  0  0  0
  -11.6268   -2.4661   -3.5537 O   0  0  0  0  0  0  0  0  0  0  0  0
  1  2  2  0
  2  3  1  0
  2 16  1  0
  3  4  1  0
  3  6  2  0
  4  5  1  0
  6  7  1  0
  7 15  1  0
  7  8  1  0
 11 12  1  0
 12 28  1  0
 12 27  1  0
 12 26  1  0
 15 16  1  0
 15 25  2  0
 16 17  1  0
 17 18  1  0
 18 19  1  0
 18 29  1  0
 29 30  1  0
 30 31  2  0
  8  9  2  0
  9 10  1  0
 10 11  2  0
 11 13  1  0
 13 14  2  0
 14  8  1  0
 19 20  2  0
 20 21  1  0
 21 22  2  0
 22 23  1  0
 23 24  2  0
 24 19  1  0
M  END

$$$$
No_55-gen_results_new/Mpro_new_generate_500/2024-01-19-21-58-56/
     RDKit          3D

 34 37  0  0  0  0  0  0  0  0999 V2000
   -9.1300   -2.9100    0.4520 O   0  0  0  0  0  0  0  0  0  0  0  0
  -10.2490   -2.6420    0.1800 C   0  0  0  0  0  0  0  0  0  0  0  0
  -11.3800   -3.0650    1.0860 C   0  0  0  0  0  0  0  0  0  0  0  0
  -11.2000   -3.8390    2.3880 C   0  0  0  0  0  0  0  0  0  0  0  0
  -10.9900   -5.0690    2.3420 N   0  0  0  0  0  0  0  0  0  0  0  0
  -12.7310   -2.7290    0.7330 N   0  0  0  0  0  0  0  0  0  0  0  0
  -12.9960   -1.9940   -0.4510 N   0  0  0  0  0  0  0  0  0  0  0  0
  -14.3580   -1.6940   -0.7530 C   0  0  0  0  0  0  0  0  0  0  0  0
  -15.0390   -0.7180   -0.0560 C   0  0  0  0  0  0  0  0  0  0  0  0
  -16.3510   -0.4690   -0.3980 C   0  0  0  0  0  0  0  0  0  0  0  0
  -16.9430   -1.2030   -1.4080 C   0  0  0  0  0  0  0  0  0  0  0  0
  -18.3840   -0.9560   -1.8060 C   0  0  0  0  0  0  0  0  0  0  0  0
  -16.2510   -2.1690   -2.1000 C   0  0  0  0  0  0  0  0  0  0  0  0
  -14.9490   -2.4160   -1.7590 C   0  0  0  0  0  0  0  0  0  0  0  0
  -11.9050   -1.5730   -1.3540 C   0  0  0  0  0  0  0  0  0  0  0  0
  -10.5280   -1.9050   -1.0240 N   0  0  0  0  0  0  0  0  0  0  0  0
   -9.4550   -1.4720   -1.9190 C   0  0  0  0  0  0  0  0  0  0  0  0
   -9.2820   -2.3940   -3.1270 C   0  0  0  0  0  0  0  0  0  0  0  0
   -7.8170   -2.5500   -3.5360 C   0  0  0  0  0  0  0  0  0  0  0  0
   -6.9720   -3.3210   -2.7550 C   0  0  0  0  0  0  0  0  0  0  0  0
   -5.6390   -3.4770   -3.1110 C   0  0  0  0  0  0  0  0  0  0  0  0
   -5.1940   -2.8390   -4.2640 C   0  0  0  0  0  0  0  0  0  0  0  0
   -6.0850   -2.0780   -5.0070 C   0  0  0  0  0  0  0  0  0  0  0  0
   -7.3470   -1.9600   -4.6270 N   0  0  0  0  0  0  0  0  0  0  0  0
  -12.1450   -0.9640   -2.3390 O   0  0  0  0  0  0  0  0  0  0  0  0
  -18.7610   -1.8760   -2.7390 F   0  0  0  0  0  0  0  0  0  0  0  0
  -18.4550    0.3250   -2.2750 F   0  0  0  0  0  0  0  0  0  0  0  0
  -19.1950   -1.1300   -0.7370 F   0  0  0  0  0  0  0  0  0  0  0  0
  -10.0453   -2.0069   -4.3181 C   0  0  0  0  0  0  0  0  0  0  0  0
   -9.8476   -3.8948   -2.8015 C   0  0  0  0  0  0  0  0  0  0  0  0
  -10.1714   -4.7331   -3.9309 C   0  0  0  0  0  0  0  0  0  0  0  0
  -10.6131   -4.1472   -4.9938 O   0  0  0  0  0  0  0  0  0  0  0  0
  -10.9143   -2.8234   -5.0615 C   0  0  0  0  0  0  0  0  0  0  0  0
  -11.3293   -2.3697   -6.3000 F   0  0  0  0  0  0  0  0  0  0  0  0
  1  2  2  0
  2  3  1  0
  2 16  1  0
  3  4  1  0
  3  6  2  0
  4  5  1  0
  6  7  1  0
  7 15  1  0
  7  8  1  0
 11 12  1  0
 12 28  1  0
 12 27  1  0
 12 26  1  0
 15 16  1  0
 15 25  2  0
 16 17  1  0
 17 18  1  0
 18 19  1  0
 18 29  1  0
 18 30  1  0
 30 31  2  0
 31 32  1  0
 29 33  2  0
 32 33  1  0
 33 34  1  0
  8  9  2  0
  9 10  1  0
 10 11  2  0
 11 13  1  0
 13 14  2  0
 14  8  1  0
 19 20  2  0
 20 21  1  0
 21 22  2  0
 22 23  1  0
 23 24  2  0
 24 19  1  0
M  END

$$$$
No_56-gen_results_new/Mpro_new_generate_500/2024-01-19-21-58-56/
     RDKit          3D

 31 33  0  0  0  0  0  0  0  0999 V2000
   -9.1300   -2.9100    0.4520 O   0  0  0  0  0  0  0  0  0  0  0  0
  -10.2490   -2.6420    0.1800 C   0  0  0  0  0  0  0  0  0  0  0  0
  -11.3800   -3.0650    1.0860 C   0  0  0  0  0  0  0  0  0  0  0  0
  -11.2000   -3.8390    2.3880 C   0  0  0  0  0  0  0  0  0  0  0  0
  -10.9900   -5.0690    2.3420 N   0  0  0  0  0  0  0  0  0  0  0  0
  -12.7310   -2.7290    0.7330 N   0  0  0  0  0  0  0  0  0  0  0  0
  -12.9960   -1.9940   -0.4510 N   0  0  0  0  0  0  0  0  0  0  0  0
  -14.3580   -1.6940   -0.7530 C   0  0  0  0  0  0  0  0  0  0  0  0
  -15.0390   -0.7180   -0.0560 C   0  0  0  0  0  0  0  0  0  0  0  0
  -16.3510   -0.4690   -0.3980 C   0  0  0  0  0  0  0  0  0  0  0  0
  -16.9430   -1.2030   -1.4080 C   0  0  0  0  0  0  0  0  0  0  0  0
  -18.3840   -0.9560   -1.8060 C   0  0  0  0  0  0  0  0  0  0  0  0
  -16.2510   -2.1690   -2.1000 C   0  0  0  0  0  0  0  0  0  0  0  0
  -14.9490   -2.4160   -1.7590 C   0  0  0  0  0  0  0  0  0  0  0  0
  -11.9050   -1.5730   -1.3540 C   0  0  0  0  0  0  0  0  0  0  0  0
  -10.5280   -1.9050   -1.0240 N   0  0  0  0  0  0  0  0  0  0  0  0
   -9.4550   -1.4720   -1.9190 C   0  0  0  0  0  0  0  0  0  0  0  0
   -9.2820   -2.3940   -3.1270 C   0  0  0  0  0  0  0  0  0  0  0  0
   -7.8170   -2.5500   -3.5360 C   0  0  0  0  0  0  0  0  0  0  0  0
   -6.9720   -3.3210   -2.7550 C   0  0  0  0  0  0  0  0  0  0  0  0
   -5.6390   -3.4770   -3.1110 C   0  0  0  0  0  0  0  0  0  0  0  0
   -5.1940   -2.8390   -4.2640 C   0  0  0  0  0  0  0  0  0  0  0  0
   -6.0850   -2.0780   -5.0070 C   0  0  0  0  0  0  0  0  0  0  0  0
   -7.3470   -1.9600   -4.6270 N   0  0  0  0  0  0  0  0  0  0  0  0
  -12.1450   -0.9640   -2.3390 O   0  0  0  0  0  0  0  0  0  0  0  0
  -18.7610   -1.8760   -2.7390 F   0  0  0  0  0  0  0  0  0  0  0  0
  -18.4550    0.3250   -2.2750 F   0  0  0  0  0  0  0  0  0  0  0  0
  -19.1950   -1.1300   -0.7370 F   0  0  0  0  0  0  0  0  0  0  0  0
  -10.1467   -3.0903   -3.8357 C   0  0  0  0  0  0  0  0  0  0  0  0
  -10.1681   -2.5855   -3.6007 C   0  0  0  0  0  0  0  0  0  0  0  0
  -10.4499   -1.5957   -4.9129 C   0  0  0  0  0  0  0  0  0  0  0  0
  1  2  2  0
  2  3  1  0
  2 16  1  0
  3  4  1  0
  3  6  2  0
  4  5  1  0
  6  7  1  0
  7 15  1  0
  7  8  1  0
 11 12  1  0
 12 28  1  0
 12 27  1  0
 12 26  1  0
 15 16  1  0
 15 25  2  0
 16 17  1  0
 17 18  1  0
 18 19  1  0
 18 29  1  0
 29 30  1  0
 30 31  3  0
  8  9  2  0
  9 10  1  0
 10 11  2  0
 11 13  1  0
 13 14  2  0
 14  8  1  0
 19 20  2  0
 20 21  1  0
 21 22  2  0
 22 23  1  0
 23 24  2  0
 24 19  1  0
M  END

$$$$
No_57-gen_results_new/Mpro_new_generate_500/2024-01-19-21-58-56/
     RDKit          3D

 35 38  0  0  0  0  0  0  0  0999 V2000
   -9.1300   -2.9100    0.4520 O   0  0  0  0  0  0  0  0  0  0  0  0
  -10.2490   -2.6420    0.1800 C   0  0  0  0  0  0  0  0  0  0  0  0
  -11.3800   -3.0650    1.0860 C   0  0  0  0  0  0  0  0  0  0  0  0
  -11.2000   -3.8390    2.3880 C   0  0  0  0  0  0  0  0  0  0  0  0
  -10.9900   -5.0690    2.3420 N   0  0  0  0  0  0  0  0  0  0  0  0
  -12.7310   -2.7290    0.7330 N   0  0  0  0  0  0  0  0  0  0  0  0
  -12.9960   -1.9940   -0.4510 N   0  0  0  0  0  0  0  0  0  0  0  0
  -14.3580   -1.6940   -0.7530 C   0  0  0  0  0  0  0  0  0  0  0  0
  -15.0390   -0.7180   -0.0560 C   0  0  0  0  0  0  0  0  0  0  0  0
  -16.3510   -0.4690   -0.3980 C   0  0  0  0  0  0  0  0  0  0  0  0
  -16.9430   -1.2030   -1.4080 C   0  0  0  0  0  0  0  0  0  0  0  0
  -18.3840   -0.9560   -1.8060 C   0  0  0  0  0  0  0  0  0  0  0  0
  -16.2510   -2.1690   -2.1000 C   0  0  0  0  0  0  0  0  0  0  0  0
  -14.9490   -2.4160   -1.7590 C   0  0  0  0  0  0  0  0  0  0  0  0
  -11.9050   -1.5730   -1.3540 C   0  0  0  0  0  0  0  0  0  0  0  0
  -10.5280   -1.9050   -1.0240 N   0  0  0  0  0  0  0  0  0  0  0  0
   -9.4550   -1.4720   -1.9190 C   0  0  0  0  0  0  0  0  0  0  0  0
   -9.2820   -2.3940   -3.1270 C   0  0  0  0  0  0  0  0  0  0  0  0
   -7.8170   -2.5500   -3.5360 C   0  0  0  0  0  0  0  0  0  0  0  0
   -6.9720   -3.3210   -2.7550 C   0  0  0  0  0  0  0  0  0  0  0  0
   -5.6390   -3.4770   -3.1110 C   0  0  0  0  0  0  0  0  0  0  0  0
   -5.1940   -2.8390   -4.2640 C   0  0  0  0  0  0  0  0  0  0  0  0
   -6.0850   -2.0780   -5.0070 C   0  0  0  0  0  0  0  0  0  0  0  0
   -7.3470   -1.9600   -4.6270 N   0  0  0  0  0  0  0  0  0  0  0  0
  -12.1450   -0.9640   -2.3390 O   0  0  0  0  0  0  0  0  0  0  0  0
  -18.7610   -1.8760   -2.7390 F   0  0  0  0  0  0  0  0  0  0  0  0
  -18.4550    0.3250   -2.2750 F   0  0  0  0  0  0  0  0  0  0  0  0
  -19.1950   -1.1300   -0.7370 F   0  0  0  0  0  0  0  0  0  0  0  0
   -9.7920   -3.7475   -2.8656 C   0  0  0  0  0  0  0  0  0  0  0  0
  -10.0717   -1.8029   -4.3549 C   0  0  0  0  0  0  0  0  0  0  0  0
  -10.8816   -4.2900   -3.6532 C   0  0  0  0  0  0  0  0  0  0  0  0
  -10.4719   -4.5023   -4.6401 C   0  0  0  0  0  0  0  0  0  0  0  0
  -11.3407   -5.4686   -4.9776 F   0  0  0  0  0  0  0  0  0  0  0  0
  -10.7345   -3.0996   -5.1214 C   0  0  0  0  0  0  0  0  0  0  0  0
  -12.2165   -4.5373   -3.1245 C   0  0  0  0  0  0  0  0  0  0  0  0
  1  2  2  0
  2  3  1  0
  2 16  1  0
  3  4  1  0
  3  6  2  0
  4  5  1  0
  6  7  1  0
  7 15  1  0
  7  8  1  0
 11 12  1  0
 12 28  1  0
 12 27  1  0
 12 26  1  0
 15 16  1  0
 15 25  2  0
 16 17  1  0
 17 18  1  0
 18 19  1  0
 18 29  1  0
 18 30  1  0
 29 31  1  0
 32 33  1  0
 32 34  1  0
 31 35  1  0
 31 32  1  0
 34 30  1  0
  8  9  2  0
  9 10  1  0
 10 11  2  0
 11 13  1  0
 13 14  2  0
 14  8  1  0
 19 20  2  0
 20 21  1  0
 21 22  2  0
 22 23  1  0
 23 24  2  0
 24 19  1  0
M  END

$$$$
No_58-gen_results_new/Mpro_new_generate_500/2024-01-19-21-58-56/
     RDKit          3D

 33 35  0  0  0  0  0  0  0  0999 V2000
   -9.1300   -2.9100    0.4520 O   0  0  0  0  0  0  0  0  0  0  0  0
  -10.2490   -2.6420    0.1800 C   0  0  0  0  0  0  0  0  0  0  0  0
  -11.3800   -3.0650    1.0860 C   0  0  0  0  0  0  0  0  0  0  0  0
  -11.2000   -3.8390    2.3880 C   0  0  0  0  0  0  0  0  0  0  0  0
  -10.9900   -5.0690    2.3420 N   0  0  0  0  0  0  0  0  0  0  0  0
  -12.7310   -2.7290    0.7330 N   0  0  0  0  0  0  0  0  0  0  0  0
  -12.9960   -1.9940   -0.4510 N   0  0  0  0  0  0  0  0  0  0  0  0
  -14.3580   -1.6940   -0.7530 C   0  0  0  0  0  0  0  0  0  0  0  0
  -15.0390   -0.7180   -0.0560 C   0  0  0  0  0  0  0  0  0  0  0  0
  -16.3510   -0.4690   -0.3980 C   0  0  0  0  0  0  0  0  0  0  0  0
  -16.9430   -1.2030   -1.4080 C   0  0  0  0  0  0  0  0  0  0  0  0
  -18.3840   -0.9560   -1.8060 C   0  0  0  0  0  0  0  0  0  0  0  0
  -16.2510   -2.1690   -2.1000 C   0  0  0  0  0  0  0  0  0  0  0  0
  -14.9490   -2.4160   -1.7590 C   0  0  0  0  0  0  0  0  0  0  0  0
  -11.9050   -1.5730   -1.3540 C   0  0  0  0  0  0  0  0  0  0  0  0
  -10.5280   -1.9050   -1.0240 N   0  0  0  0  0  0  0  0  0  0  0  0
   -9.4550   -1.4720   -1.9190 C   0  0  0  0  0  0  0  0  0  0  0  0
   -9.2820   -2.3940   -3.1270 C   0  0  0  0  0  0  0  0  0  0  0  0
   -7.8170   -2.5500   -3.5360 C   0  0  0  0  0  0  0  0  0  0  0  0
   -6.9720   -3.3210   -2.7550 C   0  0  0  0  0  0  0  0  0  0  0  0
   -5.6390   -3.4770   -3.1110 C   0  0  0  0  0  0  0  0  0  0  0  0
   -5.1940   -2.8390   -4.2640 C   0  0  0  0  0  0  0  0  0  0  0  0
   -6.0850   -2.0780   -5.0070 C   0  0  0  0  0  0  0  0  0  0  0  0
   -7.3470   -1.9600   -4.6270 N   0  0  0  0  0  0  0  0  0  0  0  0
  -12.1450   -0.9640   -2.3390 O   0  0  0  0  0  0  0  0  0  0  0  0
  -18.7610   -1.8760   -2.7390 F   0  0  0  0  0  0  0  0  0  0  0  0
  -18.4550    0.3250   -2.2750 F   0  0  0  0  0  0  0  0  0  0  0  0
  -19.1950   -1.1300   -0.7370 F   0  0  0  0  0  0  0  0  0  0  0  0
  -10.1467   -3.0903   -3.8357 C   0  0  0  0  0  0  0  0  0  0  0  0
  -10.1748   -2.6832   -3.5186 O   0  0  0  0  0  0  0  0  0  0  0  0
  -10.7471   -2.9982   -4.5745 C   0  0  0  0  0  0  0  0  0  0  0  0
  -10.5503   -3.6142   -3.7225 C   0  0  0  0  0  0  0  0  0  0  0  0
  -11.6072   -4.5774   -3.5439 O   0  0  0  0  0  0  0  0  0  0  0  0
  1  2  2  0
  2  3  1  0
  2 16  1  0
  3  4  1  0
  3  6  2  0
  4  5  1  0
  6  7  1  0
  7 15  1  0
  7  8  1  0
 11 12  1  0
 12 28  1  0
 12 27  1  0
 12 26  1  0
 15 16  1  0
 15 25  2  0
 16 17  1  0
 17 18  1  0
 18 19  1  0
 18 29  1  0
 29 30  1  0
 29 31  1  0
 30 32  1  0
 32 33  2  0
  8  9  2  0
  9 10  1  0
 10 11  2  0
 11 13  1  0
 13 14  2  0
 14  8  1  0
 19 20  2  0
 20 21  1  0
 21 22  2  0
 22 23  1  0
 23 24  2  0
 24 19  1  0
M  END

$$$$
No_59-gen_results_new/Mpro_new_generate_500/2024-01-19-21-58-56/
     RDKit          3D

 31 33  0  0  0  0  0  0  0  0999 V2000
   -9.1300   -2.9100    0.4520 O   0  0  0  0  0  0  0  0  0  0  0  0
  -10.2490   -2.6420    0.1800 C   0  0  0  0  0  0  0  0  0  0  0  0
  -11.3800   -3.0650    1.0860 C   0  0  0  0  0  0  0  0  0  0  0  0
  -11.2000   -3.8390    2.3880 C   0  0  0  0  0  0  0  0  0  0  0  0
  -10.9900   -5.0690    2.3420 N   0  0  0  0  0  0  0  0  0  0  0  0
  -12.7310   -2.7290    0.7330 N   0  0  0  0  0  0  0  0  0  0  0  0
  -12.9960   -1.9940   -0.4510 N   0  0  0  0  0  0  0  0  0  0  0  0
  -14.3580   -1.6940   -0.7530 C   0  0  0  0  0  0  0  0  0  0  0  0
  -15.0390   -0.7180   -0.0560 C   0  0  0  0  0  0  0  0  0  0  0  0
  -16.3510   -0.4690   -0.3980 C   0  0  0  0  0  0  0  0  0  0  0  0
  -16.9430   -1.2030   -1.4080 C   0  0  0  0  0  0  0  0  0  0  0  0
  -18.3840   -0.9560   -1.8060 C   0  0  0  0  0  0  0  0  0  0  0  0
  -16.2510   -2.1690   -2.1000 C   0  0  0  0  0  0  0  0  0  0  0  0
  -14.9490   -2.4160   -1.7590 C   0  0  0  0  0  0  0  0  0  0  0  0
  -11.9050   -1.5730   -1.3540 C   0  0  0  0  0  0  0  0  0  0  0  0
  -10.5280   -1.9050   -1.0240 N   0  0  0  0  0  0  0  0  0  0  0  0
   -9.4550   -1.4720   -1.9190 C   0  0  0  0  0  0  0  0  0  0  0  0
   -9.2820   -2.3940   -3.1270 C   0  0  0  0  0  0  0  0  0  0  0  0
   -7.8170   -2.5500   -3.5360 C   0  0  0  0  0  0  0  0  0  0  0  0
   -6.9720   -3.3210   -2.7550 C   0  0  0  0  0  0  0  0  0  0  0  0
   -5.6390   -3.4770   -3.1110 C   0  0  0  0  0  0  0  0  0  0  0  0
   -5.1940   -2.8390   -4.2640 C   0  0  0  0  0  0  0  0  0  0  0  0
   -6.0850   -2.0780   -5.0070 C   0  0  0  0  0  0  0  0  0  0  0  0
   -7.3470   -1.9600   -4.6270 N   0  0  0  0  0  0  0  0  0  0  0  0
  -12.1450   -0.9640   -2.3390 O   0  0  0  0  0  0  0  0  0  0  0  0
  -18.7610   -1.8760   -2.7390 F   0  0  0  0  0  0  0  0  0  0  0  0
  -18.4550    0.3250   -2.2750 F   0  0  0  0  0  0  0  0  0  0  0  0
  -19.1950   -1.1300   -0.7370 F   0  0  0  0  0  0  0  0  0  0  0  0
  -10.0899   -3.0088   -3.7244 O   0  0  0  0  0  0  0  0  0  0  0  0
  -16.7844   -3.0180   -3.1233 O   0  0  0  0  0  0  0  0  0  0  0  0
  -17.1277   -2.7877   -4.2706 C   0  0  0  0  0  0  0  0  0  0  0  0
  1  2  2  0
  2  3  1  0
  2 16  1  0
  3  4  1  0
  3  6  2  0
  4  5  1  0
  6  7  1  0
  7 15  1  0
  7  8  1  0
 11 12  1  0
 12 28  1  0
 12 27  1  0
 12 26  1  0
 15 16  1  0
 15 25  2  0
 16 17  1  0
 17 18  1  0
 18 19  1  0
 18 29  2  0
 13 30  1  0
 30 31  1  0
  8  9  2  0
  9 10  1  0
 10 11  2  0
 11 13  1  0
 13 14  2  0
 14  8  1  0
 19 20  2  0
 20 21  1  0
 21 22  2  0
 22 23  1  0
 23 24  2  0
 24 19  1  0
M  END

$$$$
No_60-gen_results_new/Mpro_new_generate_500/2024-01-19-21-58-56/
     RDKit          3D

 32 34  0  0  0  0  0  0  0  0999 V2000
   -9.1300   -2.9100    0.4520 O   0  0  0  0  0  0  0  0  0  0  0  0
  -10.2490   -2.6420    0.1800 C   0  0  0  0  0  0  0  0  0  0  0  0
  -11.3800   -3.0650    1.0860 C   0  0  0  0  0  0  0  0  0  0  0  0
  -11.2000   -3.8390    2.3880 C   0  0  0  0  0  0  0  0  0  0  0  0
  -10.9900   -5.0690    2.3420 N   0  0  0  0  0  0  0  0  0  0  0  0
  -12.7310   -2.7290    0.7330 N   0  0  0  0  0  0  0  0  0  0  0  0
  -12.9960   -1.9940   -0.4510 N   0  0  0  0  0  0  0  0  0  0  0  0
  -14.3580   -1.6940   -0.7530 C   0  0  0  0  0  0  0  0  0  0  0  0
  -15.0390   -0.7180   -0.0560 C   0  0  0  0  0  0  0  0  0  0  0  0
  -16.3510   -0.4690   -0.3980 C   0  0  0  0  0  0  0  0  0  0  0  0
  -16.9430   -1.2030   -1.4080 C   0  0  0  0  0  0  0  0  0  0  0  0
  -18.3840   -0.9560   -1.8060 C   0  0  0  0  0  0  0  0  0  0  0  0
  -16.2510   -2.1690   -2.1000 C   0  0  0  0  0  0  0  0  0  0  0  0
  -14.9490   -2.4160   -1.7590 C   0  0  0  0  0  0  0  0  0  0  0  0
  -11.9050   -1.5730   -1.3540 C   0  0  0  0  0  0  0  0  0  0  0  0
  -10.5280   -1.9050   -1.0240 N   0  0  0  0  0  0  0  0  0  0  0  0
   -9.4550   -1.4720   -1.9190 C   0  0  0  0  0  0  0  0  0  0  0  0
   -9.2820   -2.3940   -3.1270 C   0  0  0  0  0  0  0  0  0  0  0  0
   -7.8170   -2.5500   -3.5360 C   0  0  0  0  0  0  0  0  0  0  0  0
   -6.9720   -3.3210   -2.7550 C   0  0  0  0  0  0  0  0  0  0  0  0
   -5.6390   -3.4770   -3.1110 C   0  0  0  0  0  0  0  0  0  0  0  0
   -5.1940   -2.8390   -4.2640 C   0  0  0  0  0  0  0  0  0  0  0  0
   -6.0850   -2.0780   -5.0070 C   0  0  0  0  0  0  0  0  0  0  0  0
   -7.3470   -1.9600   -4.6270 N   0  0  0  0  0  0  0  0  0  0  0  0
  -12.1450   -0.9640   -2.3390 O   0  0  0  0  0  0  0  0  0  0  0  0
  -18.7610   -1.8760   -2.7390 F   0  0  0  0  0  0  0  0  0  0  0  0
  -18.4550    0.3250   -2.2750 F   0  0  0  0  0  0  0  0  0  0  0  0
  -19.1950   -1.1300   -0.7370 F   0  0  0  0  0  0  0  0  0  0  0  0
   -9.9397   -3.9796   -2.9011 S   0  0  0  0  0  0  0  0  0  0  0  0
   -9.7673   -4.7393   -2.0214 O   0  0  0  0  0  0  0  0  0  0  0  0
   -9.9367   -4.8388   -4.4762 C   0  0  0  0  0  0  0  0  0  0  0  0
  -11.8351   -3.7738   -3.2345 C   0  0  0  0  0  0  0  0  0  0  0  0
  1  2  2  0
  2  3  1  0
  2 16  1  0
  3  4  1  0
  3  6  2  0
  4  5  1  0
  6  7  1  0
  7 15  1  0
  7  8  1  0
 11 12  1  0
 12 28  1  0
 12 27  1  0
 12 26  1  0
 15 16  1  0
 15 25  2  0
 16 17  1  0
 17 18  1  0
 18 19  1  0
 18 29  1  0
 29 30  2  0
 29 31  1  0
 29 32  1  0
  8  9  2  0
  9 10  1  0
 10 11  2  0
 11 13  1  0
 13 14  2  0
 14  8  1  0
 19 20  2  0
 20 21  1  0
 21 22  2  0
 22 23  1  0
 23 24  2  0
 24 19  1  0
M  END

$$$$
No_61-gen_results_new/Mpro_new_generate_500/2024-01-19-21-58-56/
     RDKit          3D

 33 35  0  0  0  0  0  0  0  0999 V2000
   -9.1300   -2.9100    0.4520 O   0  0  0  0  0  0  0  0  0  0  0  0
  -10.2490   -2.6420    0.1800 C   0  0  0  0  0  0  0  0  0  0  0  0
  -11.3800   -3.0650    1.0860 C   0  0  0  0  0  0  0  0  0  0  0  0
  -11.2000   -3.8390    2.3880 C   0  0  0  0  0  0  0  0  0  0  0  0
  -10.9900   -5.0690    2.3420 N   0  0  0  0  0  0  0  0  0  0  0  0
  -12.7310   -2.7290    0.7330 N   0  0  0  0  0  0  0  0  0  0  0  0
  -12.9960   -1.9940   -0.4510 N   0  0  0  0  0  0  0  0  0  0  0  0
  -14.3580   -1.6940   -0.7530 C   0  0  0  0  0  0  0  0  0  0  0  0
  -15.0390   -0.7180   -0.0560 C   0  0  0  0  0  0  0  0  0  0  0  0
  -16.3510   -0.4690   -0.3980 C   0  0  0  0  0  0  0  0  0  0  0  0
  -16.9430   -1.2030   -1.4080 C   0  0  0  0  0  0  0  0  0  0  0  0
  -18.3840   -0.9560   -1.8060 C   0  0  0  0  0  0  0  0  0  0  0  0
  -16.2510   -2.1690   -2.1000 C   0  0  0  0  0  0  0  0  0  0  0  0
  -14.9490   -2.4160   -1.7590 C   0  0  0  0  0  0  0  0  0  0  0  0
  -11.9050   -1.5730   -1.3540 C   0  0  0  0  0  0  0  0  0  0  0  0
  -10.5280   -1.9050   -1.0240 N   0  0  0  0  0  0  0  0  0  0  0  0
   -9.4550   -1.4720   -1.9190 C   0  0  0  0  0  0  0  0  0  0  0  0
   -9.2820   -2.3940   -3.1270 C   0  0  0  0  0  0  0  0  0  0  0  0
   -7.8170   -2.5500   -3.5360 C   0  0  0  0  0  0  0  0  0  0  0  0
   -6.9720   -3.3210   -2.7550 C   0  0  0  0  0  0  0  0  0  0  0  0
   -5.6390   -3.4770   -3.1110 C   0  0  0  0  0  0  0  0  0  0  0  0
   -5.1940   -2.8390   -4.2640 C   0  0  0  0  0  0  0  0  0  0  0  0
   -6.0850   -2.0780   -5.0070 C   0  0  0  0  0  0  0  0  0  0  0  0
   -7.3470   -1.9600   -4.6270 N   0  0  0  0  0  0  0  0  0  0  0  0
  -12.1450   -0.9640   -2.3390 O   0  0  0  0  0  0  0  0  0  0  0  0
  -18.7610   -1.8760   -2.7390 F   0  0  0  0  0  0  0  0  0  0  0  0
  -18.4550    0.3250   -2.2750 F   0  0  0  0  0  0  0  0  0  0  0  0
  -19.1950   -1.1300   -0.7370 F   0  0  0  0  0  0  0  0  0  0  0  0
   -9.7920   -3.7475   -2.8656 C   0  0  0  0  0  0  0  0  0  0  0  0
  -10.0717   -1.8029   -4.3549 C   0  0  0  0  0  0  0  0  0  0  0  0
  -10.8091   -3.9382   -3.1276 O   0  0  0  0  0  0  0  0  0  0  0  0
   -9.4142   -4.5373   -2.0523 O   0  0  0  0  0  0  0  0  0  0  0  0
   -9.6734   -5.3243   -1.3624 C   0  0  0  0  0  0  0  0  0  0  0  0
  1  2  2  0
  2  3  1  0
  2 16  1  0
  3  4  1  0
  3  6  2  0
  4  5  1  0
  6  7  1  0
  7 15  1  0
  7  8  1  0
 11 12  1  0
 12 28  1  0
 12 27  1  0
 12 26  1  0
 15 16  1  0
 15 25  2  0
 16 17  1  0
 17 18  1  0
 18 19  1  0
 18 29  1  0
 18 30  1  0
 29 31  2  0
 29 32  1  0
 32 33  1  0
  8  9  2  0
  9 10  1  0
 10 11  2  0
 11 13  1  0
 13 14  2  0
 14  8  1  0
 19 20  2  0
 20 21  1  0
 21 22  2  0
 22 23  1  0
 23 24  2  0
 24 19  1  0
M  END

$$$$
No_62-gen_results_new/Mpro_new_generate_500/2024-01-19-21-58-56/
     RDKit          3D

 34 37  0  0  0  0  0  0  0  0999 V2000
   -9.1300   -2.9100    0.4520 O   0  0  0  0  0  0  0  0  0  0  0  0
  -10.2490   -2.6420    0.1800 C   0  0  0  0  0  0  0  0  0  0  0  0
  -11.3800   -3.0650    1.0860 C   0  0  0  0  0  0  0  0  0  0  0  0
  -11.2000   -3.8390    2.3880 C   0  0  0  0  0  0  0  0  0  0  0  0
  -10.9900   -5.0690    2.3420 N   0  0  0  0  0  0  0  0  0  0  0  0
  -12.7310   -2.7290    0.7330 N   0  0  0  0  0  0  0  0  0  0  0  0
  -12.9960   -1.9940   -0.4510 N   0  0  0  0  0  0  0  0  0  0  0  0
  -14.3580   -1.6940   -0.7530 C   0  0  0  0  0  0  0  0  0  0  0  0
  -15.0390   -0.7180   -0.0560 C   0  0  0  0  0  0  0  0  0  0  0  0
  -16.3510   -0.4690   -0.3980 C   0  0  0  0  0  0  0  0  0  0  0  0
  -16.9430   -1.2030   -1.4080 C   0  0  0  0  0  0  0  0  0  0  0  0
  -18.3840   -0.9560   -1.8060 C   0  0  0  0  0  0  0  0  0  0  0  0
  -16.2510   -2.1690   -2.1000 C   0  0  0  0  0  0  0  0  0  0  0  0
  -14.9490   -2.4160   -1.7590 C   0  0  0  0  0  0  0  0  0  0  0  0
  -11.9050   -1.5730   -1.3540 C   0  0  0  0  0  0  0  0  0  0  0  0
  -10.5280   -1.9050   -1.0240 N   0  0  0  0  0  0  0  0  0  0  0  0
   -9.4550   -1.4720   -1.9190 C   0  0  0  0  0  0  0  0  0  0  0  0
   -9.2820   -2.3940   -3.1270 C   0  0  0  0  0  0  0  0  0  0  0  0
   -7.8170   -2.5500   -3.5360 C   0  0  0  0  0  0  0  0  0  0  0  0
   -6.9720   -3.3210   -2.7550 C   0  0  0  0  0  0  0  0  0  0  0  0
   -5.6390   -3.4770   -3.1110 C   0  0  0  0  0  0  0  0  0  0  0  0
   -5.1940   -2.8390   -4.2640 C   0  0  0  0  0  0  0  0  0  0  0  0
   -6.0850   -2.0780   -5.0070 C   0  0  0  0  0  0  0  0  0  0  0  0
   -7.3470   -1.9600   -4.6270 N   0  0  0  0  0  0  0  0  0  0  0  0
  -12.1450   -0.9640   -2.3390 O   0  0  0  0  0  0  0  0  0  0  0  0
  -18.7610   -1.8760   -2.7390 F   0  0  0  0  0  0  0  0  0  0  0  0
  -18.4550    0.3250   -2.2750 F   0  0  0  0  0  0  0  0  0  0  0  0
  -19.1950   -1.1300   -0.7370 F   0  0  0  0  0  0  0  0  0  0  0  0
   -9.7920   -3.7475   -2.8656 C   0  0  0  0  0  0  0  0  0  0  0  0
  -10.0717   -1.8029   -4.3549 C   0  0  0  0  0  0  0  0  0  0  0  0
  -10.0419   -4.6597   -4.1091 C   0  0  0  0  0  0  0  0  0  0  0  0
  -10.3271   -4.0944   -5.2068 O   0  0  0  0  0  0  0  0  0  0  0  0
  -10.6195   -2.6984   -5.2717 C   0  0  0  0  0  0  0  0  0  0  0  0
  -11.1258   -2.2457   -6.4306 O   0  0  0  0  0  0  0  0  0  0  0  0
  1  2  2  0
  2  3  1  0
  2 16  1  0
  3  4  1  0
  3  6  2  0
  4  5  1  0
  6  7  1  0
  7 15  1  0
  7  8  1  0
 11 12  1  0
 12 28  1  0
 12 27  1  0
 12 26  1  0
 15 16  1  0
 15 25  2  0
 16 17  1  0
 17 18  1  0
 18 19  1  0
 18 29  1  0
 18 30  1  0
 29 31  2  0
 31 32  1  0
 30 33  1  0
 32 33  1  0
 33 34  2  0
  8  9  2  0
  9 10  1  0
 10 11  2  0
 11 13  1  0
 13 14  2  0
 14  8  1  0
 19 20  2  0
 20 21  1  0
 21 22  2  0
 22 23  1  0
 23 24  2  0
 24 19  1  0
M  END

$$$$
No_63-gen_results_new/Mpro_new_generate_500/2024-01-19-21-58-56/
     RDKit          3D

 34 37  0  0  0  0  0  0  0  0999 V2000
   -9.1300   -2.9100    0.4520 O   0  0  0  0  0  0  0  0  0  0  0  0
  -10.2490   -2.6420    0.1800 C   0  0  0  0  0  0  0  0  0  0  0  0
  -11.3800   -3.0650    1.0860 C   0  0  0  0  0  0  0  0  0  0  0  0
  -11.2000   -3.8390    2.3880 C   0  0  0  0  0  0  0  0  0  0  0  0
  -10.9900   -5.0690    2.3420 N   0  0  0  0  0  0  0  0  0  0  0  0
  -12.7310   -2.7290    0.7330 N   0  0  0  0  0  0  0  0  0  0  0  0
  -12.9960   -1.9940   -0.4510 N   0  0  0  0  0  0  0  0  0  0  0  0
  -14.3580   -1.6940   -0.7530 C   0  0  0  0  0  0  0  0  0  0  0  0
  -15.0390   -0.7180   -0.0560 C   0  0  0  0  0  0  0  0  0  0  0  0
  -16.3510   -0.4690   -0.3980 C   0  0  0  0  0  0  0  0  0  0  0  0
  -16.9430   -1.2030   -1.4080 C   0  0  0  0  0  0  0  0  0  0  0  0
  -18.3840   -0.9560   -1.8060 C   0  0  0  0  0  0  0  0  0  0  0  0
  -16.2510   -2.1690   -2.1000 C   0  0  0  0  0  0  0  0  0  0  0  0
  -14.9490   -2.4160   -1.7590 C   0  0  0  0  0  0  0  0  0  0  0  0
  -11.9050   -1.5730   -1.3540 C   0  0  0  0  0  0  0  0  0  0  0  0
  -10.5280   -1.9050   -1.0240 N   0  0  0  0  0  0  0  0  0  0  0  0
   -9.4550   -1.4720   -1.9190 C   0  0  0  0  0  0  0  0  0  0  0  0
   -9.2820   -2.3940   -3.1270 C   0  0  0  0  0  0  0  0  0  0  0  0
   -7.8170   -2.5500   -3.5360 C   0  0  0  0  0  0  0  0  0  0  0  0
   -6.9720   -3.3210   -2.7550 C   0  0  0  0  0  0  0  0  0  0  0  0
   -5.6390   -3.4770   -3.1110 C   0  0  0  0  0  0  0  0  0  0  0  0
   -5.1940   -2.8390   -4.2640 C   0  0  0  0  0  0  0  0  0  0  0  0
   -6.0850   -2.0780   -5.0070 C   0  0  0  0  0  0  0  0  0  0  0  0
   -7.3470   -1.9600   -4.6270 N   0  0  0  0  0  0  0  0  0  0  0  0
  -12.1450   -0.9640   -2.3390 O   0  0  0  0  0  0  0  0  0  0  0  0
  -18.7610   -1.8760   -2.7390 F   0  0  0  0  0  0  0  0  0  0  0  0
  -18.4550    0.3250   -2.2750 F   0  0  0  0  0  0  0  0  0  0  0  0
  -19.1950   -1.1300   -0.7370 F   0  0  0  0  0  0  0  0  0  0  0  0
  -10.1467   -3.0903   -3.8357 C   0  0  0  0  0  0  0  0  0  0  0  0
  -10.1748   -2.6832   -3.5186 O   0  0  0  0  0  0  0  0  0  0  0  0
  -10.3765   -2.3268   -4.6334 C   0  0  0  0  0  0  0  0  0  0  0  0
  -11.0139   -3.0533   -2.9049 F   0  0  0  0  0  0  0  0  0  0  0  0
  -10.6862   -1.7496   -3.7875 C   0  0  0  0  0  0  0  0  0  0  0  0
  -10.2664   -0.7241   -4.0282 C   0  0  0  0  0  0  0  0  0  0  0  0
  1  2  2  0
  2  3  1  0
  2 16  1  0
  3  4  1  0
  3  6  2  0
  4  5  1  0
  6  7  1  0
  7 15  1  0
  7  8  1  0
 11 12  1  0
 12 28  1  0
 12 27  1  0
 12 26  1  0
 15 16  1  0
 15 25  2  0
 16 17  1  0
 17 18  1  0
 18 19  1  0
 18 29  1  0
 29 30  1  0
 29 31  1  0
 31 32  1  0
 30 33  1  0
 31 34  1  0
 33 34  1  0
  8  9  2  0
  9 10  1  0
 10 11  2  0
 11 13  1  0
 13 14  2  0
 14  8  1  0
 19 20  2  0
 20 21  1  0
 21 22  2  0
 22 23  1  0
 23 24  2  0
 24 19  1  0
M  END

$$$$
No_64-gen_results_new/Mpro_new_generate_500/2024-01-19-21-58-56/
     RDKit          3D

 33 35  0  0  0  0  0  0  0  0999 V2000
   -9.1300   -2.9100    0.4520 O   0  0  0  0  0  0  0  0  0  0  0  0
  -10.2490   -2.6420    0.1800 C   0  0  0  0  0  0  0  0  0  0  0  0
  -11.3800   -3.0650    1.0860 C   0  0  0  0  0  0  0  0  0  0  0  0
  -11.2000   -3.8390    2.3880 C   0  0  0  0  0  0  0  0  0  0  0  0
  -10.9900   -5.0690    2.3420 N   0  0  0  0  0  0  0  0  0  0  0  0
  -12.7310   -2.7290    0.7330 N   0  0  0  0  0  0  0  0  0  0  0  0
  -12.9960   -1.9940   -0.4510 N   0  0  0  0  0  0  0  0  0  0  0  0
  -14.3580   -1.6940   -0.7530 C   0  0  0  0  0  0  0  0  0  0  0  0
  -15.0390   -0.7180   -0.0560 C   0  0  0  0  0  0  0  0  0  0  0  0
  -16.3510   -0.4690   -0.3980 C   0  0  0  0  0  0  0  0  0  0  0  0
  -16.9430   -1.2030   -1.4080 C   0  0  0  0  0  0  0  0  0  0  0  0
  -18.3840   -0.9560   -1.8060 C   0  0  0  0  0  0  0  0  0  0  0  0
  -16.2510   -2.1690   -2.1000 C   0  0  0  0  0  0  0  0  0  0  0  0
  -14.9490   -2.4160   -1.7590 C   0  0  0  0  0  0  0  0  0  0  0  0
  -11.9050   -1.5730   -1.3540 C   0  0  0  0  0  0  0  0  0  0  0  0
  -10.5280   -1.9050   -1.0240 N   0  0  0  0  0  0  0  0  0  0  0  0
   -9.4550   -1.4720   -1.9190 C   0  0  0  0  0  0  0  0  0  0  0  0
   -9.2820   -2.3940   -3.1270 C   0  0  0  0  0  0  0  0  0  0  0  0
   -7.8170   -2.5500   -3.5360 C   0  0  0  0  0  0  0  0  0  0  0  0
   -6.9720   -3.3210   -2.7550 C   0  0  0  0  0  0  0  0  0  0  0  0
   -5.6390   -3.4770   -3.1110 C   0  0  0  0  0  0  0  0  0  0  0  0
   -5.1940   -2.8390   -4.2640 C   0  0  0  0  0  0  0  0  0  0  0  0
   -6.0850   -2.0780   -5.0070 C   0  0  0  0  0  0  0  0  0  0  0  0
   -7.3470   -1.9600   -4.6270 N   0  0  0  0  0  0  0  0  0  0  0  0
  -12.1450   -0.9640   -2.3390 O   0  0  0  0  0  0  0  0  0  0  0  0
  -18.7610   -1.8760   -2.7390 F   0  0  0  0  0  0  0  0  0  0  0  0
  -18.4550    0.3250   -2.2750 F   0  0  0  0  0  0  0  0  0  0  0  0
  -19.1950   -1.1300   -0.7370 F   0  0  0  0  0  0  0  0  0  0  0  0
   -9.7920   -3.7475   -2.8656 C   0  0  0  0  0  0  0  0  0  0  0  0
  -10.0717   -1.8029   -4.3549 C   0  0  0  0  0  0  0  0  0  0  0  0
  -10.1499   -4.7026   -4.4192 S   0  0  0  0  0  0  0  0  0  0  0  0
   -9.7604   -6.0050   -3.9836 O   0  0  0  0  0  0  0  0  0  0  0  0
   -9.7466   -4.0594   -5.7497 C   0  0  0  0  0  0  0  0  0  0  0  0
  1  2  2  0
  2  3  1  0
  2 16  1  0
  3  4  1  0
  3  6  2  0
  4  5  1  0
  6  7  1  0
  7 15  1  0
  7  8  1  0
 11 12  1  0
 12 28  1  0
 12 27  1  0
 12 26  1  0
 15 16  1  0
 15 25  2  0
 16 17  1  0
 17 18  1  0
 18 19  1  0
 18 29  1  0
 18 30  1  0
 29 31  3  0
 31 32  2  0
 31 33  1  0
  8  9  2  0
  9 10  1  0
 10 11  2  0
 11 13  1  0
 13 14  2  0
 14  8  1  0
 19 20  2  0
 20 21  1  0
 21 22  2  0
 22 23  1  0
 23 24  2  0
 24 19  1  0
M  END

$$$$
No_65-gen_results_new/Mpro_new_generate_500/2024-01-19-21-58-56/
     RDKit          3D

 35 38  0  0  0  0  0  0  0  0999 V2000
   -9.1300   -2.9100    0.4520 O   0  0  0  0  0  0  0  0  0  0  0  0
  -10.2490   -2.6420    0.1800 C   0  0  0  0  0  0  0  0  0  0  0  0
  -11.3800   -3.0650    1.0860 C   0  0  0  0  0  0  0  0  0  0  0  0
  -11.2000   -3.8390    2.3880 C   0  0  0  0  0  0  0  0  0  0  0  0
  -10.9900   -5.0690    2.3420 N   0  0  0  0  0  0  0  0  0  0  0  0
  -12.7310   -2.7290    0.7330 N   0  0  0  0  0  0  0  0  0  0  0  0
  -12.9960   -1.9940   -0.4510 N   0  0  0  0  0  0  0  0  0  0  0  0
  -14.3580   -1.6940   -0.7530 C   0  0  0  0  0  0  0  0  0  0  0  0
  -15.0390   -0.7180   -0.0560 C   0  0  0  0  0  0  0  0  0  0  0  0
  -16.3510   -0.4690   -0.3980 C   0  0  0  0  0  0  0  0  0  0  0  0
  -16.9430   -1.2030   -1.4080 C   0  0  0  0  0  0  0  0  0  0  0  0
  -18.3840   -0.9560   -1.8060 C   0  0  0  0  0  0  0  0  0  0  0  0
  -16.2510   -2.1690   -2.1000 C   0  0  0  0  0  0  0  0  0  0  0  0
  -14.9490   -2.4160   -1.7590 C   0  0  0  0  0  0  0  0  0  0  0  0
  -11.9050   -1.5730   -1.3540 C   0  0  0  0  0  0  0  0  0  0  0  0
  -10.5280   -1.9050   -1.0240 N   0  0  0  0  0  0  0  0  0  0  0  0
   -9.4550   -1.4720   -1.9190 C   0  0  0  0  0  0  0  0  0  0  0  0
   -9.2820   -2.3940   -3.1270 C   0  0  0  0  0  0  0  0  0  0  0  0
   -7.8170   -2.5500   -3.5360 C   0  0  0  0  0  0  0  0  0  0  0  0
   -6.9720   -3.3210   -2.7550 C   0  0  0  0  0  0  0  0  0  0  0  0
   -5.6390   -3.4770   -3.1110 C   0  0  0  0  0  0  0  0  0  0  0  0
   -5.1940   -2.8390   -4.2640 C   0  0  0  0  0  0  0  0  0  0  0  0
   -6.0850   -2.0780   -5.0070 C   0  0  0  0  0  0  0  0  0  0  0  0
   -7.3470   -1.9600   -4.6270 N   0  0  0  0  0  0  0  0  0  0  0  0
  -12.1450   -0.9640   -2.3390 O   0  0  0  0  0  0  0  0  0  0  0  0
  -18.7610   -1.8760   -2.7390 F   0  0  0  0  0  0  0  0  0  0  0  0
  -18.4550    0.3250   -2.2750 F   0  0  0  0  0  0  0  0  0  0  0  0
  -19.1950   -1.1300   -0.7370 F   0  0  0  0  0  0  0  0  0  0  0  0
   -9.7920   -3.7475   -2.8656 C   0  0  0  0  0  0  0  0  0  0  0  0
  -10.1387   -2.0206   -4.2903 C   0  0  0  0  0  0  0  0  0  0  0  0
  -10.7383   -4.2958   -3.7467 C   0  0  0  0  0  0  0  0  0  0  0  0
  -10.9789   -2.9649   -4.4688 O   0  0  0  0  0  0  0  0  0  0  0  0
  -10.0761   -1.0040   -4.9111 O   0  0  0  0  0  0  0  0  0  0  0  0
  -11.8829   -4.8710   -3.3866 O   0  0  0  0  0  0  0  0  0  0  0  0
  -12.2878   -4.6760   -2.0055 C   0  0  0  0  0  0  0  0  0  0  0  0
  1  2  2  0
  2  3  1  0
  2 16  1  0
  3  4  1  0
  3  6  2  0
  4  5  1  0
  6  7  1  0
  7 15  1  0
  7  8  1  0
 11 12  1  0
 12 28  1  0
 12 27  1  0
 12 26  1  0
 15 16  1  0
 15 25  2  0
 16 17  1  0
 17 18  1  0
 18 19  1  0
 18 29  1  0
 18 30  1  0
 29 31  1  0
 30 32  1  0
 31 32  1  0
 30 33  2  0
 31 34  1  0
 34 35  1  0
  8  9  2  0
  9 10  1  0
 10 11  2  0
 11 13  1  0
 13 14  2  0
 14  8  1  0
 19 20  2  0
 20 21  1  0
 21 22  2  0
 22 23  1  0
 23 24  2  0
 24 19  1  0
M  END

$$$$
No_66-gen_results_new/Mpro_new_generate_500/2024-01-19-21-58-56/
     RDKit          3D

 31 33  0  0  0  0  0  0  0  0999 V2000
   -9.1300   -2.9100    0.4520 O   0  0  0  0  0  0  0  0  0  0  0  0
  -10.2490   -2.6420    0.1800 C   0  0  0  0  0  0  0  0  0  0  0  0
  -11.3800   -3.0650    1.0860 C   0  0  0  0  0  0  0  0  0  0  0  0
  -11.2000   -3.8390    2.3880 C   0  0  0  0  0  0  0  0  0  0  0  0
  -10.9900   -5.0690    2.3420 N   0  0  0  0  0  0  0  0  0  0  0  0
  -12.7310   -2.7290    0.7330 N   0  0  0  0  0  0  0  0  0  0  0  0
  -12.9960   -1.9940   -0.4510 N   0  0  0  0  0  0  0  0  0  0  0  0
  -14.3580   -1.6940   -0.7530 C   0  0  0  0  0  0  0  0  0  0  0  0
  -15.0390   -0.7180   -0.0560 C   0  0  0  0  0  0  0  0  0  0  0  0
  -16.3510   -0.4690   -0.3980 C   0  0  0  0  0  0  0  0  0  0  0  0
  -16.9430   -1.2030   -1.4080 C   0  0  0  0  0  0  0  0  0  0  0  0
  -18.3840   -0.9560   -1.8060 C   0  0  0  0  0  0  0  0  0  0  0  0
  -16.2510   -2.1690   -2.1000 C   0  0  0  0  0  0  0  0  0  0  0  0
  -14.9490   -2.4160   -1.7590 C   0  0  0  0  0  0  0  0  0  0  0  0
  -11.9050   -1.5730   -1.3540 C   0  0  0  0  0  0  0  0  0  0  0  0
  -10.5280   -1.9050   -1.0240 N   0  0  0  0  0  0  0  0  0  0  0  0
   -9.4550   -1.4720   -1.9190 C   0  0  0  0  0  0  0  0  0  0  0  0
   -9.2820   -2.3940   -3.1270 C   0  0  0  0  0  0  0  0  0  0  0  0
   -7.8170   -2.5500   -3.5360 C   0  0  0  0  0  0  0  0  0  0  0  0
   -6.9720   -3.3210   -2.7550 C   0  0  0  0  0  0  0  0  0  0  0  0
   -5.6390   -3.4770   -3.1110 C   0  0  0  0  0  0  0  0  0  0  0  0
   -5.1940   -2.8390   -4.2640 C   0  0  0  0  0  0  0  0  0  0  0  0
   -6.0850   -2.0780   -5.0070 C   0  0  0  0  0  0  0  0  0  0  0  0
   -7.3470   -1.9600   -4.6270 N   0  0  0  0  0  0  0  0  0  0  0  0
  -12.1450   -0.9640   -2.3390 O   0  0  0  0  0  0  0  0  0  0  0  0
  -18.7610   -1.8760   -2.7390 F   0  0  0  0  0  0  0  0  0  0  0  0
  -18.4550    0.3250   -2.2750 F   0  0  0  0  0  0  0  0  0  0  0  0
  -19.1950   -1.1300   -0.7370 F   0  0  0  0  0  0  0  0  0  0  0  0
   -9.6560   -3.6380   -2.7665 F   0  0  0  0  0  0  0  0  0  0  0  0
  -10.1042   -1.8827   -4.3253 C   0  0  0  0  0  0  0  0  0  0  0  0
  -16.7721   -2.9964   -3.1037 F   0  0  0  0  0  0  0  0  0  0  0  0
  1  2  2  0
  2  3  1  0
  2 16  1  0
  3  4  1  0
  3  6  2  0
  4  5  1  0
  6  7  1  0
  7 15  1  0
  7  8  1  0
 11 12  1  0
 12 28  1  0
 12 27  1  0
 12 26  1  0
 15 16  1  0
 15 25  2  0
 16 17  1  0
 17 18  1  0
 18 19  1  0
 18 29  1  0
 18 30  1  0
 13 31  1  0
  8  9  2  0
  9 10  1  0
 10 11  2  0
 11 13  1  0
 13 14  2  0
 14  8  1  0
 19 20  2  0
 20 21  1  0
 21 22  2  0
 22 23  1  0
 23 24  2  0
 24 19  1  0
M  END

$$$$
No_67-gen_results_new/Mpro_new_generate_500/2024-01-19-21-58-56/
     RDKit          3D

 35 37  0  0  0  0  0  0  0  0999 V2000
   -9.1300   -2.9100    0.4520 O   0  0  0  0  0  0  0  0  0  0  0  0
  -10.2490   -2.6420    0.1800 C   0  0  0  0  0  0  0  0  0  0  0  0
  -11.3800   -3.0650    1.0860 C   0  0  0  0  0  0  0  0  0  0  0  0
  -11.2000   -3.8390    2.3880 C   0  0  0  0  0  0  0  0  0  0  0  0
  -10.9900   -5.0690    2.3420 N   0  0  0  0  0  0  0  0  0  0  0  0
  -12.7310   -2.7290    0.7330 N   0  0  0  0  0  0  0  0  0  0  0  0
  -12.9960   -1.9940   -0.4510 N   0  0  0  0  0  0  0  0  0  0  0  0
  -14.3580   -1.6940   -0.7530 C   0  0  0  0  0  0  0  0  0  0  0  0
  -15.0390   -0.7180   -0.0560 C   0  0  0  0  0  0  0  0  0  0  0  0
  -16.3510   -0.4690   -0.3980 C   0  0  0  0  0  0  0  0  0  0  0  0
  -16.9430   -1.2030   -1.4080 C   0  0  0  0  0  0  0  0  0  0  0  0
  -18.3840   -0.9560   -1.8060 C   0  0  0  0  0  0  0  0  0  0  0  0
  -16.2510   -2.1690   -2.1000 C   0  0  0  0  0  0  0  0  0  0  0  0
  -14.9490   -2.4160   -1.7590 C   0  0  0  0  0  0  0  0  0  0  0  0
  -11.9050   -1.5730   -1.3540 C   0  0  0  0  0  0  0  0  0  0  0  0
  -10.5280   -1.9050   -1.0240 N   0  0  0  0  0  0  0  0  0  0  0  0
   -9.4550   -1.4720   -1.9190 C   0  0  0  0  0  0  0  0  0  0  0  0
   -9.2820   -2.3940   -3.1270 C   0  0  0  0  0  0  0  0  0  0  0  0
   -7.8170   -2.5500   -3.5360 C   0  0  0  0  0  0  0  0  0  0  0  0
   -6.9720   -3.3210   -2.7550 C   0  0  0  0  0  0  0  0  0  0  0  0
   -5.6390   -3.4770   -3.1110 C   0  0  0  0  0  0  0  0  0  0  0  0
   -5.1940   -2.8390   -4.2640 C   0  0  0  0  0  0  0  0  0  0  0  0
   -6.0850   -2.0780   -5.0070 C   0  0  0  0  0  0  0  0  0  0  0  0
   -7.3470   -1.9600   -4.6270 N   0  0  0  0  0  0  0  0  0  0  0  0
  -12.1450   -0.9640   -2.3390 O   0  0  0  0  0  0  0  0  0  0  0  0
  -18.7610   -1.8760   -2.7390 F   0  0  0  0  0  0  0  0  0  0  0  0
  -18.4550    0.3250   -2.2750 F   0  0  0  0  0  0  0  0  0  0  0  0
  -19.1950   -1.1300   -0.7370 F   0  0  0  0  0  0  0  0  0  0  0  0
  -10.0453   -2.0069   -4.3181 C   0  0  0  0  0  0  0  0  0  0  0  0
   -9.8476   -3.8948   -2.8015 C   0  0  0  0  0  0  0  0  0  0  0  0
  -10.8670   -3.9285   -2.9143 O   0  0  0  0  0  0  0  0  0  0  0  0
   -9.2646   -4.7012   -2.0206 O   0  0  0  0  0  0  0  0  0  0  0  0
   -9.7137   -5.4218   -1.4704 C   0  0  0  0  0  0  0  0  0  0  0  0
   -8.9679   -6.5229   -1.6260 C   0  0  0  0  0  0  0  0  0  0  0  0
   -7.5293   -6.2351   -1.5352 C   0  0  0  0  0  0  0  0  0  0  0  0
  1  2  2  0
  2  3  1  0
  2 16  1  0
  3  4  1  0
  3  6  2  0
  4  5  1  0
  6  7  1  0
  7 15  1  0
  7  8  1  0
 11 12  1  0
 12 28  1  0
 12 27  1  0
 12 26  1  0
 15 16  1  0
 15 25  2  0
 16 17  1  0
 17 18  1  0
 18 19  1  0
 18 29  1  0
 18 30  1  0
 30 31  2  0
 30 32  1  0
 32 33  1  0
 33 34  1  0
 34 35  1  0
  8  9  2  0
  9 10  1  0
 10 11  2  0
 11 13  1  0
 13 14  2  0
 14  8  1  0
 19 20  2  0
 20 21  1  0
 21 22  2  0
 22 23  1  0
 23 24  2  0
 24 19  1  0
M  END

$$$$
No_68-gen_results_new/Mpro_new_generate_500/2024-01-19-21-58-56/
     RDKit          3D

 35 37  0  0  0  0  0  0  0  0999 V2000
   -9.1300   -2.9100    0.4520 O   0  0  0  0  0  0  0  0  0  0  0  0
  -10.2490   -2.6420    0.1800 C   0  0  0  0  0  0  0  0  0  0  0  0
  -11.3800   -3.0650    1.0860 C   0  0  0  0  0  0  0  0  0  0  0  0
  -11.2000   -3.8390    2.3880 C   0  0  0  0  0  0  0  0  0  0  0  0
  -10.9900   -5.0690    2.3420 N   0  0  0  0  0  0  0  0  0  0  0  0
  -12.7310   -2.7290    0.7330 N   0  0  0  0  0  0  0  0  0  0  0  0
  -12.9960   -1.9940   -0.4510 N   0  0  0  0  0  0  0  0  0  0  0  0
  -14.3580   -1.6940   -0.7530 C   0  0  0  0  0  0  0  0  0  0  0  0
  -15.0390   -0.7180   -0.0560 C   0  0  0  0  0  0  0  0  0  0  0  0
  -16.3510   -0.4690   -0.3980 C   0  0  0  0  0  0  0  0  0  0  0  0
  -16.9430   -1.2030   -1.4080 C   0  0  0  0  0  0  0  0  0  0  0  0
  -18.3840   -0.9560   -1.8060 C   0  0  0  0  0  0  0  0  0  0  0  0
  -16.2510   -2.1690   -2.1000 C   0  0  0  0  0  0  0  0  0  0  0  0
  -14.9490   -2.4160   -1.7590 C   0  0  0  0  0  0  0  0  0  0  0  0
  -11.9050   -1.5730   -1.3540 C   0  0  0  0  0  0  0  0  0  0  0  0
  -10.5280   -1.9050   -1.0240 N   0  0  0  0  0  0  0  0  0  0  0  0
   -9.4550   -1.4720   -1.9190 C   0  0  0  0  0  0  0  0  0  0  0  0
   -9.2820   -2.3940   -3.1270 C   0  0  0  0  0  0  0  0  0  0  0  0
   -7.8170   -2.5500   -3.5360 C   0  0  0  0  0  0  0  0  0  0  0  0
   -6.9720   -3.3210   -2.7550 C   0  0  0  0  0  0  0  0  0  0  0  0
   -5.6390   -3.4770   -3.1110 C   0  0  0  0  0  0  0  0  0  0  0  0
   -5.1940   -2.8390   -4.2640 C   0  0  0  0  0  0  0  0  0  0  0  0
   -6.0850   -2.0780   -5.0070 C   0  0  0  0  0  0  0  0  0  0  0  0
   -7.3470   -1.9600   -4.6270 N   0  0  0  0  0  0  0  0  0  0  0  0
  -12.1450   -0.9640   -2.3390 O   0  0  0  0  0  0  0  0  0  0  0  0
  -18.7610   -1.8760   -2.7390 F   0  0  0  0  0  0  0  0  0  0  0  0
  -18.4550    0.3250   -2.2750 F   0  0  0  0  0  0  0  0  0  0  0  0
  -19.1950   -1.1300   -0.7370 F   0  0  0  0  0  0  0  0  0  0  0  0
  -10.0899   -3.0088   -3.7244 O   0  0  0  0  0  0  0  0  0  0  0  0
  -16.7844   -3.0180   -3.1233 O   0  0  0  0  0  0  0  0  0  0  0  0
  -16.5408   -4.4495   -2.9958 C   0  0  0  0  0  0  0  0  0  0  0  0
  -15.5473   -4.4608   -4.3263 C   0  0  0  0  0  0  0  0  0  0  0  0
  -14.2243   -5.0542   -3.7166 C   0  0  0  0  0  0  0  0  0  0  0  0
  -14.1936   -6.0072   -2.7245 N   0  0  0  0  0  0  0  0  0  0  0  0
  -13.1144   -4.6246   -4.0270 O   0  0  0  0  0  0  0  0  0  0  0  0
  1  2  2  0
  2  3  1  0
  2 16  1  0
  3  4  1  0
  3  6  2  0
  4  5  1  0
  6  7  1  0
  7 15  1  0
  7  8  1  0
 11 12  1  0
 12 28  1  0
 12 27  1  0
 12 26  1  0
 15 16  1  0
 15 25  2  0
 16 17  1  0
 17 18  1  0
 18 19  1  0
 18 29  2  0
 13 30  1  0
 30 31  1  0
 31 32  1  0
 32 33  1  0
 33 34  1  0
 33 35  2  0
  8  9  2  0
  9 10  1  0
 10 11  2  0
 11 13  1  0
 13 14  2  0
 14  8  1  0
 19 20  2  0
 20 21  1  0
 21 22  2  0
 22 23  1  0
 23 24  2  0
 24 19  1  0
M  END

$$$$
No_69-gen_results_new/Mpro_new_generate_500/2024-01-19-21-58-56/
     RDKit          3D

 35 37  0  0  0  0  0  0  0  0999 V2000
   -9.1300   -2.9100    0.4520 O   0  0  0  0  0  0  0  0  0  0  0  0
  -10.2490   -2.6420    0.1800 C   0  0  0  0  0  0  0  0  0  0  0  0
  -11.3800   -3.0650    1.0860 C   0  0  0  0  0  0  0  0  0  0  0  0
  -11.2000   -3.8390    2.3880 C   0  0  0  0  0  0  0  0  0  0  0  0
  -10.9900   -5.0690    2.3420 N   0  0  0  0  0  0  0  0  0  0  0  0
  -12.7310   -2.7290    0.7330 N   0  0  0  0  0  0  0  0  0  0  0  0
  -12.9960   -1.9940   -0.4510 N   0  0  0  0  0  0  0  0  0  0  0  0
  -14.3580   -1.6940   -0.7530 C   0  0  0  0  0  0  0  0  0  0  0  0
  -15.0390   -0.7180   -0.0560 C   0  0  0  0  0  0  0  0  0  0  0  0
  -16.3510   -0.4690   -0.3980 C   0  0  0  0  0  0  0  0  0  0  0  0
  -16.9430   -1.2030   -1.4080 C   0  0  0  0  0  0  0  0  0  0  0  0
  -18.3840   -0.9560   -1.8060 C   0  0  0  0  0  0  0  0  0  0  0  0
  -16.2510   -2.1690   -2.1000 C   0  0  0  0  0  0  0  0  0  0  0  0
  -14.9490   -2.4160   -1.7590 C   0  0  0  0  0  0  0  0  0  0  0  0
  -11.9050   -1.5730   -1.3540 C   0  0  0  0  0  0  0  0  0  0  0  0
  -10.5280   -1.9050   -1.0240 N   0  0  0  0  0  0  0  0  0  0  0  0
   -9.4550   -1.4720   -1.9190 C   0  0  0  0  0  0  0  0  0  0  0  0
   -9.2820   -2.3940   -3.1270 C   0  0  0  0  0  0  0  0  0  0  0  0
   -7.8170   -2.5500   -3.5360 C   0  0  0  0  0  0  0  0  0  0  0  0
   -6.9720   -3.3210   -2.7550 C   0  0  0  0  0  0  0  0  0  0  0  0
   -5.6390   -3.4770   -3.1110 C   0  0  0  0  0  0  0  0  0  0  0  0
   -5.1940   -2.8390   -4.2640 C   0  0  0  0  0  0  0  0  0  0  0  0
   -6.0850   -2.0780   -5.0070 C   0  0  0  0  0  0  0  0  0  0  0  0
   -7.3470   -1.9600   -4.6270 N   0  0  0  0  0  0  0  0  0  0  0  0
  -12.1450   -0.9640   -2.3390 O   0  0  0  0  0  0  0  0  0  0  0  0
  -18.7610   -1.8760   -2.7390 F   0  0  0  0  0  0  0  0  0  0  0  0
  -18.4550    0.3250   -2.2750 F   0  0  0  0  0  0  0  0  0  0  0  0
  -19.1950   -1.1300   -0.7370 F   0  0  0  0  0  0  0  0  0  0  0  0
   -9.7920   -3.7475   -2.8656 C   0  0  0  0  0  0  0  0  0  0  0  0
  -10.0717   -1.8029   -4.3549 C   0  0  0  0  0  0  0  0  0  0  0  0
  -10.0419   -4.6597   -4.1091 C   0  0  0  0  0  0  0  0  0  0  0  0
  -11.5069   -4.7544   -4.4405 C   0  0  0  0  0  0  0  0  0  0  0  0
  -12.5650   -5.0200   -3.5400 C   0  0  0  0  0  0  0  0  0  0  0  0
   -9.3186   -4.6602   -5.3148 C   0  0  0  0  0  0  0  0  0  0  0  0
   -8.3268   -5.6951   -5.3923 C   0  0  0  0  0  0  0  0  0  0  0  0
  1  2  2  0
  2  3  1  0
  2 16  1  0
  3  4  1  0
  3  6  2  0
  4  5  1  0
  6  7  1  0
  7 15  1  0
  7  8  1  0
 11 12  1  0
 12 28  1  0
 12 27  1  0
 12 26  1  0
 15 16  1  0
 15 25  2  0
 16 17  1  0
 17 18  1  0
 18 19  1  0
 18 29  1  0
 18 30  1  0
 29 31  1  0
 31 32  1  0
 32 33  1  0
 31 34  1  0
 34 35  1  0
  8  9  2  0
  9 10  1  0
 10 11  2  0
 11 13  1  0
 13 14  2  0
 14  8  1  0
 19 20  2  0
 20 21  1  0
 21 22  2  0
 22 23  1  0
 23 24  2  0
 24 19  1  0
M  END

$$$$
No_70-gen_results_new/Mpro_new_generate_500/2024-01-19-21-58-56/
     RDKit          3D

 35 38  0  0  0  0  0  0  0  0999 V2000
   -9.1300   -2.9100    0.4520 O   0  0  0  0  0  0  0  0  0  0  0  0
  -10.2490   -2.6420    0.1800 C   0  0  0  0  0  0  0  0  0  0  0  0
  -11.3800   -3.0650    1.0860 C   0  0  0  0  0  0  0  0  0  0  0  0
  -11.2000   -3.8390    2.3880 C   0  0  0  0  0  0  0  0  0  0  0  0
  -10.9900   -5.0690    2.3420 N   0  0  0  0  0  0  0  0  0  0  0  0
  -12.7310   -2.7290    0.7330 N   0  0  0  0  0  0  0  0  0  0  0  0
  -12.9960   -1.9940   -0.4510 N   0  0  0  0  0  0  0  0  0  0  0  0
  -14.3580   -1.6940   -0.7530 C   0  0  0  0  0  0  0  0  0  0  0  0
  -15.0390   -0.7180   -0.0560 C   0  0  0  0  0  0  0  0  0  0  0  0
  -16.3510   -0.4690   -0.3980 C   0  0  0  0  0  0  0  0  0  0  0  0
  -16.9430   -1.2030   -1.4080 C   0  0  0  0  0  0  0  0  0  0  0  0
  -18.3840   -0.9560   -1.8060 C   0  0  0  0  0  0  0  0  0  0  0  0
  -16.2510   -2.1690   -2.1000 C   0  0  0  0  0  0  0  0  0  0  0  0
  -14.9490   -2.4160   -1.7590 C   0  0  0  0  0  0  0  0  0  0  0  0
  -11.9050   -1.5730   -1.3540 C   0  0  0  0  0  0  0  0  0  0  0  0
  -10.5280   -1.9050   -1.0240 N   0  0  0  0  0  0  0  0  0  0  0  0
   -9.4550   -1.4720   -1.9190 C   0  0  0  0  0  0  0  0  0  0  0  0
   -9.2820   -2.3940   -3.1270 C   0  0  0  0  0  0  0  0  0  0  0  0
   -7.8170   -2.5500   -3.5360 C   0  0  0  0  0  0  0  0  0  0  0  0
   -6.9720   -3.3210   -2.7550 C   0  0  0  0  0  0  0  0  0  0  0  0
   -5.6390   -3.4770   -3.1110 C   0  0  0  0  0  0  0  0  0  0  0  0
   -5.1940   -2.8390   -4.2640 C   0  0  0  0  0  0  0  0  0  0  0  0
   -6.0850   -2.0780   -5.0070 C   0  0  0  0  0  0  0  0  0  0  0  0
   -7.3470   -1.9600   -4.6270 N   0  0  0  0  0  0  0  0  0  0  0  0
  -12.1450   -0.9640   -2.3390 O   0  0  0  0  0  0  0  0  0  0  0  0
  -18.7610   -1.8760   -2.7390 F   0  0  0  0  0  0  0  0  0  0  0  0
  -18.4550    0.3250   -2.2750 F   0  0  0  0  0  0  0  0  0  0  0  0
  -19.1950   -1.1300   -0.7370 F   0  0  0  0  0  0  0  0  0  0  0  0
   -9.7920   -3.7475   -2.8656 C   0  0  0  0  0  0  0  0  0  0  0  0
  -10.1112   -2.1676   -4.1288 O   0  0  0  0  0  0  0  0  0  0  0  0
  -10.9497   -3.1465   -4.8669 C   0  0  0  0  0  0  0  0  0  0  0  0
  -10.7072   -4.3469   -4.0155 C   0  0  0  0  0  0  0  0  0  0  0  0
  -10.1137   -5.2055   -4.8676 F   0  0  0  0  0  0  0  0  0  0  0  0
  -11.9820   -4.7891   -3.5546 F   0  0  0  0  0  0  0  0  0  0  0  0
  -11.3577   -2.8332   -5.9568 O   0  0  0  0  0  0  0  0  0  0  0  0
  1  2  2  0
  2  3  1  0
  2 16  1  0
  3  4  1  0
  3  6  2  0
  4  5  1  0
  6  7  1  0
  7 15  1  0
  7  8  1  0
 11 12  1  0
 12 28  1  0
 12 27  1  0
 12 26  1  0
 15 16  1  0
 15 25  2  0
 16 17  1  0
 17 18  1  0
 18 19  1  0
 18 29  1  0
 18 30  1  0
 30 31  1  0
 29 32  1  0
 31 32  1  0
 32 33  1  0
 32 34  1  0
 31 35  2  0
  8  9  2  0
  9 10  1  0
 10 11  2  0
 11 13  1  0
 13 14  2  0
 14  8  1  0
 19 20  2  0
 20 21  1  0
 21 22  2  0
 22 23  1  0
 23 24  2  0
 24 19  1  0
M  END

$$$$
No_71-gen_results_new/Mpro_new_generate_500/2024-01-19-21-58-56/
     RDKit          3D

 35 37  0  0  0  0  0  0  0  0999 V2000
   -9.1300   -2.9100    0.4520 O   0  0  0  0  0  0  0  0  0  0  0  0
  -10.2490   -2.6420    0.1800 C   0  0  0  0  0  0  0  0  0  0  0  0
  -11.3800   -3.0650    1.0860 C   0  0  0  0  0  0  0  0  0  0  0  0
  -11.2000   -3.8390    2.3880 C   0  0  0  0  0  0  0  0  0  0  0  0
  -10.9900   -5.0690    2.3420 N   0  0  0  0  0  0  0  0  0  0  0  0
  -12.7310   -2.7290    0.7330 N   0  0  0  0  0  0  0  0  0  0  0  0
  -12.9960   -1.9940   -0.4510 N   0  0  0  0  0  0  0  0  0  0  0  0
  -14.3580   -1.6940   -0.7530 C   0  0  0  0  0  0  0  0  0  0  0  0
  -15.0390   -0.7180   -0.0560 C   0  0  0  0  0  0  0  0  0  0  0  0
  -16.3510   -0.4690   -0.3980 C   0  0  0  0  0  0  0  0  0  0  0  0
  -16.9430   -1.2030   -1.4080 C   0  0  0  0  0  0  0  0  0  0  0  0
  -18.3840   -0.9560   -1.8060 C   0  0  0  0  0  0  0  0  0  0  0  0
  -16.2510   -2.1690   -2.1000 C   0  0  0  0  0  0  0  0  0  0  0  0
  -14.9490   -2.4160   -1.7590 C   0  0  0  0  0  0  0  0  0  0  0  0
  -11.9050   -1.5730   -1.3540 C   0  0  0  0  0  0  0  0  0  0  0  0
  -10.5280   -1.9050   -1.0240 N   0  0  0  0  0  0  0  0  0  0  0  0
   -9.4550   -1.4720   -1.9190 C   0  0  0  0  0  0  0  0  0  0  0  0
   -9.2820   -2.3940   -3.1270 C   0  0  0  0  0  0  0  0  0  0  0  0
   -7.8170   -2.5500   -3.5360 C   0  0  0  0  0  0  0  0  0  0  0  0
   -6.9720   -3.3210   -2.7550 C   0  0  0  0  0  0  0  0  0  0  0  0
   -5.6390   -3.4770   -3.1110 C   0  0  0  0  0  0  0  0  0  0  0  0
   -5.1940   -2.8390   -4.2640 C   0  0  0  0  0  0  0  0  0  0  0  0
   -6.0850   -2.0780   -5.0070 C   0  0  0  0  0  0  0  0  0  0  0  0
   -7.3470   -1.9600   -4.6270 N   0  0  0  0  0  0  0  0  0  0  0  0
  -12.1450   -0.9640   -2.3390 O   0  0  0  0  0  0  0  0  0  0  0  0
  -18.7610   -1.8760   -2.7390 F   0  0  0  0  0  0  0  0  0  0  0  0
  -18.4550    0.3250   -2.2750 F   0  0  0  0  0  0  0  0  0  0  0  0
  -19.1950   -1.1300   -0.7370 F   0  0  0  0  0  0  0  0  0  0  0  0
   -9.7920   -3.7475   -2.8656 C   0  0  0  0  0  0  0  0  0  0  0  0
  -10.0717   -1.8029   -4.3549 C   0  0  0  0  0  0  0  0  0  0  0  0
  -10.0419   -4.6597   -4.1091 C   0  0  0  0  0  0  0  0  0  0  0  0
  -11.0513   -4.6012   -4.7444 C   0  0  0  0  0  0  0  0  0  0  0  0
  -12.4487   -4.5110   -4.3979 C   0  0  0  0  0  0  0  0  0  0  0  0
  -10.9859   -5.1738   -6.2316 C   0  0  0  0  0  0  0  0  0  0  0  0
  -10.2496   -6.1035   -6.4826 N   0  0  0  0  0  0  0  0  0  0  0  0
  1  2  2  0
  2  3  1  0
  2 16  1  0
  3  4  1  0
  3  6  2  0
  4  5  1  0
  6  7  1  0
  7 15  1  0
  7  8  1  0
 11 12  1  0
 12 28  1  0
 12 27  1  0
 12 26  1  0
 15 16  1  0
 15 25  2  0
 16 17  1  0
 17 18  1  0
 18 19  1  0
 18 29  1  0
 18 30  1  0
 29 31  2  3
 31 32  1  0
 32 33  1  0
 32 34  1  0
 34 35  1  0
  8  9  2  0
  9 10  1  0
 10 11  2  0
 11 13  1  0
 13 14  2  0
 14  8  1  0
 19 20  2  0
 20 21  1  0
 21 22  2  0
 22 23  1  0
 23 24  2  0
 24 19  1  0
M  END

$$$$
No_72-gen_results_new/Mpro_new_generate_500/2024-01-19-21-58-56/
     RDKit          3D

 35 38  0  0  0  0  0  0  0  0999 V2000
   -9.1300   -2.9100    0.4520 O   0  0  0  0  0  0  0  0  0  0  0  0
  -10.2490   -2.6420    0.1800 C   0  0  0  0  0  0  0  0  0  0  0  0
  -11.3800   -3.0650    1.0860 C   0  0  0  0  0  0  0  0  0  0  0  0
  -11.2000   -3.8390    2.3880 C   0  0  0  0  0  0  0  0  0  0  0  0
  -10.9900   -5.0690    2.3420 N   0  0  0  0  0  0  0  0  0  0  0  0
  -12.7310   -2.7290    0.7330 N   0  0  0  0  0  0  0  0  0  0  0  0
  -12.9960   -1.9940   -0.4510 N   0  0  0  0  0  0  0  0  0  0  0  0
  -14.3580   -1.6940   -0.7530 C   0  0  0  0  0  0  0  0  0  0  0  0
  -15.0390   -0.7180   -0.0560 C   0  0  0  0  0  0  0  0  0  0  0  0
  -16.3510   -0.4690   -0.3980 C   0  0  0  0  0  0  0  0  0  0  0  0
  -16.9430   -1.2030   -1.4080 C   0  0  0  0  0  0  0  0  0  0  0  0
  -18.3840   -0.9560   -1.8060 C   0  0  0  0  0  0  0  0  0  0  0  0
  -16.2510   -2.1690   -2.1000 C   0  0  0  0  0  0  0  0  0  0  0  0
  -14.9490   -2.4160   -1.7590 C   0  0  0  0  0  0  0  0  0  0  0  0
  -11.9050   -1.5730   -1.3540 C   0  0  0  0  0  0  0  0  0  0  0  0
  -10.5280   -1.9050   -1.0240 N   0  0  0  0  0  0  0  0  0  0  0  0
   -9.4550   -1.4720   -1.9190 C   0  0  0  0  0  0  0  0  0  0  0  0
   -9.2820   -2.3940   -3.1270 C   0  0  0  0  0  0  0  0  0  0  0  0
   -7.8170   -2.5500   -3.5360 C   0  0  0  0  0  0  0  0  0  0  0  0
   -6.9720   -3.3210   -2.7550 C   0  0  0  0  0  0  0  0  0  0  0  0
   -5.6390   -3.4770   -3.1110 C   0  0  0  0  0  0  0  0  0  0  0  0
   -5.1940   -2.8390   -4.2640 C   0  0  0  0  0  0  0  0  0  0  0  0
   -6.0850   -2.0780   -5.0070 C   0  0  0  0  0  0  0  0  0  0  0  0
   -7.3470   -1.9600   -4.6270 N   0  0  0  0  0  0  0  0  0  0  0  0
  -12.1450   -0.9640   -2.3390 O   0  0  0  0  0  0  0  0  0  0  0  0
  -18.7610   -1.8760   -2.7390 F   0  0  0  0  0  0  0  0  0  0  0  0
  -18.4550    0.3250   -2.2750 F   0  0  0  0  0  0  0  0  0  0  0  0
  -19.1950   -1.1300   -0.7370 F   0  0  0  0  0  0  0  0  0  0  0  0
  -10.0453   -2.0069   -4.3181 C   0  0  0  0  0  0  0  0  0  0  0  0
   -9.8476   -3.8948   -2.8015 C   0  0  0  0  0  0  0  0  0  0  0  0
  -10.1714   -4.7331   -3.9309 C   0  0  0  0  0  0  0  0  0  0  0  0
  -10.1706   -6.0308   -3.5979 O   0  0  0  0  0  0  0  0  0  0  0  0
   -9.4459   -6.4041   -2.5012 C   0  0  0  0  0  0  0  0  0  0  0  0
   -9.4844   -6.0477   -1.5062 C   0  0  0  0  0  0  0  0  0  0  0  0
   -9.3843   -4.4052   -1.5866 C   0  0  0  0  0  0  0  0  0  0  0  0
  1  2  2  0
  2  3  1  0
  2 16  1  0
  3  4  1  0
  3  6  2  0
  4  5  1  0
  6  7  1  0
  7 15  1  0
  7  8  1  0
 11 12  1  0
 12 28  1  0
 12 27  1  0
 12 26  1  0
 15 16  1  0
 15 25  2  0
 16 17  1  0
 17 18  1  0
 18 19  1  0
 18 29  1  0
 18 30  1  0
 30 31  2  0
 31 32  1  0
 32 33  1  0
 33 34  2  0
 30 35  1  0
 34 35  1  0
  8  9  2  0
  9 10  1  0
 10 11  2  0
 11 13  1  0
 13 14  2  0
 14  8  1  0
 19 20  2  0
 20 21  1  0
 21 22  2  0
 22 23  1  0
 23 24  2  0
 24 19  1  0
M  END

$$$$
No_73-gen_results_new/Mpro_new_generate_500/2024-01-19-21-58-56/
     RDKit          3D

 35 37  0  0  0  0  0  0  0  0999 V2000
   -9.1300   -2.9100    0.4520 O   0  0  0  0  0  0  0  0  0  0  0  0
  -10.2490   -2.6420    0.1800 C   0  0  0  0  0  0  0  0  0  0  0  0
  -11.3800   -3.0650    1.0860 C   0  0  0  0  0  0  0  0  0  0  0  0
  -11.2000   -3.8390    2.3880 C   0  0  0  0  0  0  0  0  0  0  0  0
  -10.9900   -5.0690    2.3420 N   0  0  0  0  0  0  0  0  0  0  0  0
  -12.7310   -2.7290    0.7330 N   0  0  0  0  0  0  0  0  0  0  0  0
  -12.9960   -1.9940   -0.4510 N   0  0  0  0  0  0  0  0  0  0  0  0
  -14.3580   -1.6940   -0.7530 C   0  0  0  0  0  0  0  0  0  0  0  0
  -15.0390   -0.7180   -0.0560 C   0  0  0  0  0  0  0  0  0  0  0  0
  -16.3510   -0.4690   -0.3980 C   0  0  0  0  0  0  0  0  0  0  0  0
  -16.9430   -1.2030   -1.4080 C   0  0  0  0  0  0  0  0  0  0  0  0
  -18.3840   -0.9560   -1.8060 C   0  0  0  0  0  0  0  0  0  0  0  0
  -16.2510   -2.1690   -2.1000 C   0  0  0  0  0  0  0  0  0  0  0  0
  -14.9490   -2.4160   -1.7590 C   0  0  0  0  0  0  0  0  0  0  0  0
  -11.9050   -1.5730   -1.3540 C   0  0  0  0  0  0  0  0  0  0  0  0
  -10.5280   -1.9050   -1.0240 N   0  0  0  0  0  0  0  0  0  0  0  0
   -9.4550   -1.4720   -1.9190 C   0  0  0  0  0  0  0  0  0  0  0  0
   -9.2820   -2.3940   -3.1270 C   0  0  0  0  0  0  0  0  0  0  0  0
   -7.8170   -2.5500   -3.5360 C   0  0  0  0  0  0  0  0  0  0  0  0
   -6.9720   -3.3210   -2.7550 C   0  0  0  0  0  0  0  0  0  0  0  0
   -5.6390   -3.4770   -3.1110 C   0  0  0  0  0  0  0  0  0  0  0  0
   -5.1940   -2.8390   -4.2640 C   0  0  0  0  0  0  0  0  0  0  0  0
   -6.0850   -2.0780   -5.0070 C   0  0  0  0  0  0  0  0  0  0  0  0
   -7.3470   -1.9600   -4.6270 N   0  0  0  0  0  0  0  0  0  0  0  0
  -12.1450   -0.9640   -2.3390 O   0  0  0  0  0  0  0  0  0  0  0  0
  -18.7610   -1.8760   -2.7390 F   0  0  0  0  0  0  0  0  0  0  0  0
  -18.4550    0.3250   -2.2750 F   0  0  0  0  0  0  0  0  0  0  0  0
  -19.1950   -1.1300   -0.7370 F   0  0  0  0  0  0  0  0  0  0  0  0
   -9.9592   -1.9070   -4.1913 F   0  0  0  0  0  0  0  0  0  0  0  0
   -9.8855   -3.8565   -2.8874 C   0  0  0  0  0  0  0  0  0  0  0  0
  -10.9602   -4.2174   -3.8432 C   0  0  0  0  0  0  0  0  0  0  0  0
  -10.2408   -4.0064   -1.6911 F   0  0  0  0  0  0  0  0  0  0  0  0
   -9.0244   -4.9052   -3.1549 O   0  0  0  0  0  0  0  0  0  0  0  0
   -9.0196   -5.9233   -2.5243 C   0  0  0  0  0  0  0  0  0  0  0  0
   -8.1274   -7.0362   -3.2166 C   0  0  0  0  0  0  0  0  0  0  0  0
  1  2  2  0
  2  3  1  0
  2 16  1  0
  3  4  1  0
  3  6  2  0
  4  5  1  0
  6  7  1  0
  7 15  1  0
  7  8  1  0
 11 12  1  0
 12 28  1  0
 12 27  1  0
 12 26  1  0
 15 16  1  0
 15 25  2  0
 16 17  1  0
 17 18  1  0
 18 19  1  0
 18 29  1  0
 18 30  1  0
 30 31  1  0
 30 32  1  0
 30 33  1  0
 33 34  1  0
 34 35  1  0
  8  9  2  0
  9 10  1  0
 10 11  2  0
 11 13  1  0
 13 14  2  0
 14  8  1  0
 19 20  2  0
 20 21  1  0
 21 22  2  0
 22 23  1  0
 23 24  2  0
 24 19  1  0
M  END

$$$$
No_74-gen_results_new/Mpro_new_generate_500/2024-01-19-21-58-56/
     RDKit          3D

 34 37  0  0  0  0  0  0  0  0999 V2000
   -9.1300   -2.9100    0.4520 O   0  0  0  0  0  0  0  0  0  0  0  0
  -10.2490   -2.6420    0.1800 C   0  0  0  0  0  0  0  0  0  0  0  0
  -11.3800   -3.0650    1.0860 C   0  0  0  0  0  0  0  0  0  0  0  0
  -11.2000   -3.8390    2.3880 C   0  0  0  0  0  0  0  0  0  0  0  0
  -10.9900   -5.0690    2.3420 N   0  0  0  0  0  0  0  0  0  0  0  0
  -12.7310   -2.7290    0.7330 N   0  0  0  0  0  0  0  0  0  0  0  0
  -12.9960   -1.9940   -0.4510 N   0  0  0  0  0  0  0  0  0  0  0  0
  -14.3580   -1.6940   -0.7530 C   0  0  0  0  0  0  0  0  0  0  0  0
  -15.0390   -0.7180   -0.0560 C   0  0  0  0  0  0  0  0  0  0  0  0
  -16.3510   -0.4690   -0.3980 C   0  0  0  0  0  0  0  0  0  0  0  0
  -16.9430   -1.2030   -1.4080 C   0  0  0  0  0  0  0  0  0  0  0  0
  -18.3840   -0.9560   -1.8060 C   0  0  0  0  0  0  0  0  0  0  0  0
  -16.2510   -2.1690   -2.1000 C   0  0  0  0  0  0  0  0  0  0  0  0
  -14.9490   -2.4160   -1.7590 C   0  0  0  0  0  0  0  0  0  0  0  0
  -11.9050   -1.5730   -1.3540 C   0  0  0  0  0  0  0  0  0  0  0  0
  -10.5280   -1.9050   -1.0240 N   0  0  0  0  0  0  0  0  0  0  0  0
   -9.4550   -1.4720   -1.9190 C   0  0  0  0  0  0  0  0  0  0  0  0
   -9.2820   -2.3940   -3.1270 C   0  0  0  0  0  0  0  0  0  0  0  0
   -7.8170   -2.5500   -3.5360 C   0  0  0  0  0  0  0  0  0  0  0  0
   -6.9720   -3.3210   -2.7550 C   0  0  0  0  0  0  0  0  0  0  0  0
   -5.6390   -3.4770   -3.1110 C   0  0  0  0  0  0  0  0  0  0  0  0
   -5.1940   -2.8390   -4.2640 C   0  0  0  0  0  0  0  0  0  0  0  0
   -6.0850   -2.0780   -5.0070 C   0  0  0  0  0  0  0  0  0  0  0  0
   -7.3470   -1.9600   -4.6270 N   0  0  0  0  0  0  0  0  0  0  0  0
  -12.1450   -0.9640   -2.3390 O   0  0  0  0  0  0  0  0  0  0  0  0
  -18.7610   -1.8760   -2.7390 F   0  0  0  0  0  0  0  0  0  0  0  0
  -18.4550    0.3250   -2.2750 F   0  0  0  0  0  0  0  0  0  0  0  0
  -19.1950   -1.1300   -0.7370 F   0  0  0  0  0  0  0  0  0  0  0  0
  -10.0453   -2.0069   -4.3181 C   0  0  0  0  0  0  0  0  0  0  0  0
   -9.8476   -3.8948   -2.8015 C   0  0  0  0  0  0  0  0  0  0  0  0
  -10.1714   -4.7331   -3.9309 C   0  0  0  0  0  0  0  0  0  0  0  0
  -10.2051   -6.2008   -3.5771 C   0  0  0  0  0  0  0  0  0  0  0  0
   -9.7936   -6.4873   -2.2578 C   0  0  0  0  0  0  0  0  0  0  0  0
   -9.4681   -4.8694   -1.5392 S   0  0  0  0  0  0  0  0  0  0  0  0
  1  2  2  0
  2  3  1  0
  2 16  1  0
  3  4  1  0
  3  6  2  0
  4  5  1  0
  6  7  1  0
  7 15  1  0
  7  8  1  0
 11 12  1  0
 12 28  1  0
 12 27  1  0
 12 26  1  0
 15 16  1  0
 15 25  2  0
 16 17  1  0
 17 18  1  0
 18 19  1  0
 18 29  1  0
 18 30  1  0
 30 31  2  0
 31 32  1  0
 32 33  1  0
 30 34  1  0
 33 34  1  0
  8  9  2  0
  9 10  1  0
 10 11  2  0
 11 13  1  0
 13 14  2  0
 14  8  1  0
 19 20  2  0
 20 21  1  0
 21 22  2  0
 22 23  1  0
 23 24  2  0
 24 19  1  0
M  END

$$$$
No_75-gen_results_new/Mpro_new_generate_500/2024-01-19-21-58-56/
     RDKit          3D

 32 34  0  0  0  0  0  0  0  0999 V2000
   -9.1300   -2.9100    0.4520 O   0  0  0  0  0  0  0  0  0  0  0  0
  -10.2490   -2.6420    0.1800 C   0  0  0  0  0  0  0  0  0  0  0  0
  -11.3800   -3.0650    1.0860 C   0  0  0  0  0  0  0  0  0  0  0  0
  -11.2000   -3.8390    2.3880 C   0  0  0  0  0  0  0  0  0  0  0  0
  -10.9900   -5.0690    2.3420 N   0  0  0  0  0  0  0  0  0  0  0  0
  -12.7310   -2.7290    0.7330 N   0  0  0  0  0  0  0  0  0  0  0  0
  -12.9960   -1.9940   -0.4510 N   0  0  0  0  0  0  0  0  0  0  0  0
  -14.3580   -1.6940   -0.7530 C   0  0  0  0  0  0  0  0  0  0  0  0
  -15.0390   -0.7180   -0.0560 C   0  0  0  0  0  0  0  0  0  0  0  0
  -16.3510   -0.4690   -0.3980 C   0  0  0  0  0  0  0  0  0  0  0  0
  -16.9430   -1.2030   -1.4080 C   0  0  0  0  0  0  0  0  0  0  0  0
  -18.3840   -0.9560   -1.8060 C   0  0  0  0  0  0  0  0  0  0  0  0
  -16.2510   -2.1690   -2.1000 C   0  0  0  0  0  0  0  0  0  0  0  0
  -14.9490   -2.4160   -1.7590 C   0  0  0  0  0  0  0  0  0  0  0  0
  -11.9050   -1.5730   -1.3540 C   0  0  0  0  0  0  0  0  0  0  0  0
  -10.5280   -1.9050   -1.0240 N   0  0  0  0  0  0  0  0  0  0  0  0
   -9.4550   -1.4720   -1.9190 C   0  0  0  0  0  0  0  0  0  0  0  0
   -9.2820   -2.3940   -3.1270 C   0  0  0  0  0  0  0  0  0  0  0  0
   -7.8170   -2.5500   -3.5360 C   0  0  0  0  0  0  0  0  0  0  0  0
   -6.9720   -3.3210   -2.7550 C   0  0  0  0  0  0  0  0  0  0  0  0
   -5.6390   -3.4770   -3.1110 C   0  0  0  0  0  0  0  0  0  0  0  0
   -5.1940   -2.8390   -4.2640 C   0  0  0  0  0  0  0  0  0  0  0  0
   -6.0850   -2.0780   -5.0070 C   0  0  0  0  0  0  0  0  0  0  0  0
   -7.3470   -1.9600   -4.6270 N   0  0  0  0  0  0  0  0  0  0  0  0
  -12.1450   -0.9640   -2.3390 O   0  0  0  0  0  0  0  0  0  0  0  0
  -18.7610   -1.8760   -2.7390 F   0  0  0  0  0  0  0  0  0  0  0  0
  -18.4550    0.3250   -2.2750 F   0  0  0  0  0  0  0  0  0  0  0  0
  -19.1950   -1.1300   -0.7370 F   0  0  0  0  0  0  0  0  0  0  0  0
  -10.1467   -3.0903   -3.8357 C   0  0  0  0  0  0  0  0  0  0  0  0
  -10.1681   -2.5855   -3.6007 C   0  0  0  0  0  0  0  0  0  0  0  0
  -10.4499   -1.5957   -4.9129 C   0  0  0  0  0  0  0  0  0  0  0  0
  -11.0813   -3.7032   -3.8773 C   0  0  0  0  0  0  0  0  0  0  0  0
  1  2  2  0
  2  3  1  0
  2 16  1  0
  3  4  1  0
  3  6  2  0
  4  5  1  0
  6  7  1  0
  7 15  1  0
  7  8  1  0
 11 12  1  0
 12 28  1  0
 12 27  1  0
 12 26  1  0
 15 16  1  0
 15 25  2  0
 16 17  1  0
 17 18  1  0
 18 19  1  0
 18 29  1  0
 29 30  1  0
 30 31  1  0
 29 32  1  0
  8  9  2  0
  9 10  1  0
 10 11  2  0
 11 13  1  0
 13 14  2  0
 14  8  1  0
 19 20  2  0
 20 21  1  0
 21 22  2  0
 22 23  1  0
 23 24  2  0
 24 19  1  0
M  END

$$$$
No_76-gen_results_new/Mpro_new_generate_500/2024-01-19-21-58-56/
     RDKit          3D

 34 36  0  0  0  0  0  0  0  0999 V2000
   -9.1300   -2.9100    0.4520 O   0  0  0  0  0  0  0  0  0  0  0  0
  -10.2490   -2.6420    0.1800 C   0  0  0  0  0  0  0  0  0  0  0  0
  -11.3800   -3.0650    1.0860 C   0  0  0  0  0  0  0  0  0  0  0  0
  -11.2000   -3.8390    2.3880 C   0  0  0  0  0  0  0  0  0  0  0  0
  -10.9900   -5.0690    2.3420 N   0  0  0  0  0  0  0  0  0  0  0  0
  -12.7310   -2.7290    0.7330 N   0  0  0  0  0  0  0  0  0  0  0  0
  -12.9960   -1.9940   -0.4510 N   0  0  0  0  0  0  0  0  0  0  0  0
  -14.3580   -1.6940   -0.7530 C   0  0  0  0  0  0  0  0  0  0  0  0
  -15.0390   -0.7180   -0.0560 C   0  0  0  0  0  0  0  0  0  0  0  0
  -16.3510   -0.4690   -0.3980 C   0  0  0  0  0  0  0  0  0  0  0  0
  -16.9430   -1.2030   -1.4080 C   0  0  0  0  0  0  0  0  0  0  0  0
  -18.3840   -0.9560   -1.8060 C   0  0  0  0  0  0  0  0  0  0  0  0
  -16.2510   -2.1690   -2.1000 C   0  0  0  0  0  0  0  0  0  0  0  0
  -14.9490   -2.4160   -1.7590 C   0  0  0  0  0  0  0  0  0  0  0  0
  -11.9050   -1.5730   -1.3540 C   0  0  0  0  0  0  0  0  0  0  0  0
  -10.5280   -1.9050   -1.0240 N   0  0  0  0  0  0  0  0  0  0  0  0
   -9.4550   -1.4720   -1.9190 C   0  0  0  0  0  0  0  0  0  0  0  0
   -9.2820   -2.3940   -3.1270 C   0  0  0  0  0  0  0  0  0  0  0  0
   -7.8170   -2.5500   -3.5360 C   0  0  0  0  0  0  0  0  0  0  0  0
   -6.9720   -3.3210   -2.7550 C   0  0  0  0  0  0  0  0  0  0  0  0
   -5.6390   -3.4770   -3.1110 C   0  0  0  0  0  0  0  0  0  0  0  0
   -5.1940   -2.8390   -4.2640 C   0  0  0  0  0  0  0  0  0  0  0  0
   -6.0850   -2.0780   -5.0070 C   0  0  0  0  0  0  0  0  0  0  0  0
   -7.3470   -1.9600   -4.6270 N   0  0  0  0  0  0  0  0  0  0  0  0
  -12.1450   -0.9640   -2.3390 O   0  0  0  0  0  0  0  0  0  0  0  0
  -18.7610   -1.8760   -2.7390 F   0  0  0  0  0  0  0  0  0  0  0  0
  -18.4550    0.3250   -2.2750 F   0  0  0  0  0  0  0  0  0  0  0  0
  -19.1950   -1.1300   -0.7370 F   0  0  0  0  0  0  0  0  0  0  0  0
   -9.7920   -3.7475   -2.8656 C   0  0  0  0  0  0  0  0  0  0  0  0
  -10.0717   -1.8029   -4.3549 C   0  0  0  0  0  0  0  0  0  0  0  0
   -9.2295   -4.7877   -2.1591 C   0  0  0  0  0  0  0  0  0  0  0  0
  -11.0210   -4.0432   -3.2501 F   0  0  0  0  0  0  0  0  0  0  0  0
   -9.2825   -4.6917   -2.9636 C   0  0  0  0  0  0  0  0  0  0  0  0
   -9.9941   -6.1426   -3.3295 C   0  0  0  0  0  0  0  0  0  0  0  0
  1  2  2  0
  2  3  1  0
  2 16  1  0
  3  4  1  0
  3  6  2  0
  4  5  1  0
  6  7  1  0
  7 15  1  0
  7  8  1  0
 11 12  1  0
 12 28  1  0
 12 27  1  0
 12 26  1  0
 15 16  1  0
 15 25  2  0
 16 17  1  0
 17 18  1  0
 18 19  1  0
 18 29  1  0
 18 30  1  0
 29 31  1  0
 29 32  1  0
 31 33  2  3
 33 34  1  0
  8  9  2  0
  9 10  1  0
 10 11  2  0
 11 13  1  0
 13 14  2  0
 14  8  1  0
 19 20  2  0
 20 21  1  0
 21 22  2  0
 22 23  1  0
 23 24  2  0
 24 19  1  0
M  END

$$$$
No_77-gen_results_new/Mpro_new_generate_500/2024-01-19-21-58-56/
     RDKit          3D

 35 37  0  0  0  0  0  0  0  0999 V2000
   -9.1300   -2.9100    0.4520 O   0  0  0  0  0  0  0  0  0  0  0  0
  -10.2490   -2.6420    0.1800 C   0  0  0  0  0  0  0  0  0  0  0  0
  -11.3800   -3.0650    1.0860 C   0  0  0  0  0  0  0  0  0  0  0  0
  -11.2000   -3.8390    2.3880 C   0  0  0  0  0  0  0  0  0  0  0  0
  -10.9900   -5.0690    2.3420 N   0  0  0  0  0  0  0  0  0  0  0  0
  -12.7310   -2.7290    0.7330 N   0  0  0  0  0  0  0  0  0  0  0  0
  -12.9960   -1.9940   -0.4510 N   0  0  0  0  0  0  0  0  0  0  0  0
  -14.3580   -1.6940   -0.7530 C   0  0  0  0  0  0  0  0  0  0  0  0
  -15.0390   -0.7180   -0.0560 C   0  0  0  0  0  0  0  0  0  0  0  0
  -16.3510   -0.4690   -0.3980 C   0  0  0  0  0  0  0  0  0  0  0  0
  -16.9430   -1.2030   -1.4080 C   0  0  0  0  0  0  0  0  0  0  0  0
  -18.3840   -0.9560   -1.8060 C   0  0  0  0  0  0  0  0  0  0  0  0
  -16.2510   -2.1690   -2.1000 C   0  0  0  0  0  0  0  0  0  0  0  0
  -14.9490   -2.4160   -1.7590 C   0  0  0  0  0  0  0  0  0  0  0  0
  -11.9050   -1.5730   -1.3540 C   0  0  0  0  0  0  0  0  0  0  0  0
  -10.5280   -1.9050   -1.0240 N   0  0  0  0  0  0  0  0  0  0  0  0
   -9.4550   -1.4720   -1.9190 C   0  0  0  0  0  0  0  0  0  0  0  0
   -9.2820   -2.3940   -3.1270 C   0  0  0  0  0  0  0  0  0  0  0  0
   -7.8170   -2.5500   -3.5360 C   0  0  0  0  0  0  0  0  0  0  0  0
   -6.9720   -3.3210   -2.7550 C   0  0  0  0  0  0  0  0  0  0  0  0
   -5.6390   -3.4770   -3.1110 C   0  0  0  0  0  0  0  0  0  0  0  0
   -5.1940   -2.8390   -4.2640 C   0  0  0  0  0  0  0  0  0  0  0  0
   -6.0850   -2.0780   -5.0070 C   0  0  0  0  0  0  0  0  0  0  0  0
   -7.3470   -1.9600   -4.6270 N   0  0  0  0  0  0  0  0  0  0  0  0
  -12.1450   -0.9640   -2.3390 O   0  0  0  0  0  0  0  0  0  0  0  0
  -18.7610   -1.8760   -2.7390 F   0  0  0  0  0  0  0  0  0  0  0  0
  -18.4550    0.3250   -2.2750 F   0  0  0  0  0  0  0  0  0  0  0  0
  -19.1950   -1.1300   -0.7370 F   0  0  0  0  0  0  0  0  0  0  0  0
  -10.0453   -2.0069   -4.3181 C   0  0  0  0  0  0  0  0  0  0  0  0
   -9.8476   -3.8948   -2.8015 C   0  0  0  0  0  0  0  0  0  0  0  0
  -10.9871   -4.2370   -3.4678 C   0  0  0  0  0  0  0  0  0  0  0  0
  -12.0609   -5.1160   -3.0647 C   0  0  0  0  0  0  0  0  0  0  0  0
  -12.6390   -5.7758   -3.9321 O   0  0  0  0  0  0  0  0  0  0  0  0
  -12.1795   -5.4602   -1.8250 F   0  0  0  0  0  0  0  0  0  0  0  0
  -12.6163   -4.9337   -5.2189 C   0  0  0  0  0  0  0  0  0  0  0  0
  1  2  2  0
  2  3  1  0
  2 16  1  0
  3  4  1  0
  3  6  2  0
  4  5  1  0
  6  7  1  0
  7 15  1  0
  7  8  1  0
 11 12  1  0
 12 28  1  0
 12 27  1  0
 12 26  1  0
 15 16  1  0
 15 25  2  0
 16 17  1  0
 17 18  1  0
 18 19  1  0
 18 29  1  0
 18 30  1  0
 30 31  1  0
 31 32  1  0
 32 33  1  0
 32 34  1  0
 33 35  1  0
  8  9  2  0
  9 10  1  0
 10 11  2  0
 11 13  1  0
 13 14  2  0
 14  8  1  0
 19 20  2  0
 20 21  1  0
 21 22  2  0
 22 23  1  0
 23 24  2  0
 24 19  1  0
M  END

$$$$
No_78-gen_results_new/Mpro_new_generate_500/2024-01-19-21-58-56/
     RDKit          3D

 34 37  0  0  0  0  0  0  0  0999 V2000
   -9.1300   -2.9100    0.4520 O   0  0  0  0  0  0  0  0  0  0  0  0
  -10.2490   -2.6420    0.1800 C   0  0  0  0  0  0  0  0  0  0  0  0
  -11.3800   -3.0650    1.0860 C   0  0  0  0  0  0  0  0  0  0  0  0
  -11.2000   -3.8390    2.3880 C   0  0  0  0  0  0  0  0  0  0  0  0
  -10.9900   -5.0690    2.3420 N   0  0  0  0  0  0  0  0  0  0  0  0
  -12.7310   -2.7290    0.7330 N   0  0  0  0  0  0  0  0  0  0  0  0
  -12.9960   -1.9940   -0.4510 N   0  0  0  0  0  0  0  0  0  0  0  0
  -14.3580   -1.6940   -0.7530 C   0  0  0  0  0  0  0  0  0  0  0  0
  -15.0390   -0.7180   -0.0560 C   0  0  0  0  0  0  0  0  0  0  0  0
  -16.3510   -0.4690   -0.3980 C   0  0  0  0  0  0  0  0  0  0  0  0
  -16.9430   -1.2030   -1.4080 C   0  0  0  0  0  0  0  0  0  0  0  0
  -18.3840   -0.9560   -1.8060 C   0  0  0  0  0  0  0  0  0  0  0  0
  -16.2510   -2.1690   -2.1000 C   0  0  0  0  0  0  0  0  0  0  0  0
  -14.9490   -2.4160   -1.7590 C   0  0  0  0  0  0  0  0  0  0  0  0
  -11.9050   -1.5730   -1.3540 C   0  0  0  0  0  0  0  0  0  0  0  0
  -10.5280   -1.9050   -1.0240 N   0  0  0  0  0  0  0  0  0  0  0  0
   -9.4550   -1.4720   -1.9190 C   0  0  0  0  0  0  0  0  0  0  0  0
   -9.2820   -2.3940   -3.1270 C   0  0  0  0  0  0  0  0  0  0  0  0
   -7.8170   -2.5500   -3.5360 C   0  0  0  0  0  0  0  0  0  0  0  0
   -6.9720   -3.3210   -2.7550 C   0  0  0  0  0  0  0  0  0  0  0  0
   -5.6390   -3.4770   -3.1110 C   0  0  0  0  0  0  0  0  0  0  0  0
   -5.1940   -2.8390   -4.2640 C   0  0  0  0  0  0  0  0  0  0  0  0
   -6.0850   -2.0780   -5.0070 C   0  0  0  0  0  0  0  0  0  0  0  0
   -7.3470   -1.9600   -4.6270 N   0  0  0  0  0  0  0  0  0  0  0  0
  -12.1450   -0.9640   -2.3390 O   0  0  0  0  0  0  0  0  0  0  0  0
  -18.7610   -1.8760   -2.7390 F   0  0  0  0  0  0  0  0  0  0  0  0
  -18.4550    0.3250   -2.2750 F   0  0  0  0  0  0  0  0  0  0  0  0
  -19.1950   -1.1300   -0.7370 F   0  0  0  0  0  0  0  0  0  0  0  0
  -10.0453   -2.0069   -4.3181 C   0  0  0  0  0  0  0  0  0  0  0  0
   -9.8476   -3.8948   -2.8015 C   0  0  0  0  0  0  0  0  0  0  0  0
  -10.1714   -4.7331   -3.9309 C   0  0  0  0  0  0  0  0  0  0  0  0
  -10.7042   -3.4470   -5.3165 S   0  0  0  0  0  0  0  0  0  0  0  0
   -9.9829   -3.6858   -6.4458 O   0  0  0  0  0  0  0  0  0  0  0  0
  -12.1009   -3.2066   -4.6284 O   0  0  0  0  0  0  0  0  0  0  0  0
  1  2  2  0
  2  3  1  0
  2 16  1  0
  3  4  1  0
  3  6  2  0
  4  5  1  0
  6  7  1  0
  7 15  1  0
  7  8  1  0
 11 12  1  0
 12 28  1  0
 12 27  1  0
 12 26  1  0
 15 16  1  0
 15 25  2  0
 16 17  1  0
 17 18  1  0
 18 19  1  0
 18 29  1  0
 18 30  1  0
 30 31  1  0
 29 32  1  0
 31 32  1  0
 32 33  2  0
 32 34  2  0
  8  9  2  0
  9 10  1  0
 10 11  2  0
 11 13  1  0
 13 14  2  0
 14  8  1  0
 19 20  2  0
 20 21  1  0
 21 22  2  0
 22 23  1  0
 23 24  2  0
 24 19  1  0
M  END

$$$$
No_79-gen_results_new/Mpro_new_generate_500/2024-01-19-21-58-56/
     RDKit          3D

 35 38  0  0  0  0  0  0  0  0999 V2000
   -9.1300   -2.9100    0.4520 O   0  0  0  0  0  0  0  0  0  0  0  0
  -10.2490   -2.6420    0.1800 C   0  0  0  0  0  0  0  0  0  0  0  0
  -11.3800   -3.0650    1.0860 C   0  0  0  0  0  0  0  0  0  0  0  0
  -11.2000   -3.8390    2.3880 C   0  0  0  0  0  0  0  0  0  0  0  0
  -10.9900   -5.0690    2.3420 N   0  0  0  0  0  0  0  0  0  0  0  0
  -12.7310   -2.7290    0.7330 N   0  0  0  0  0  0  0  0  0  0  0  0
  -12.9960   -1.9940   -0.4510 N   0  0  0  0  0  0  0  0  0  0  0  0
  -14.3580   -1.6940   -0.7530 C   0  0  0  0  0  0  0  0  0  0  0  0
  -15.0390   -0.7180   -0.0560 C   0  0  0  0  0  0  0  0  0  0  0  0
  -16.3510   -0.4690   -0.3980 C   0  0  0  0  0  0  0  0  0  0  0  0
  -16.9430   -1.2030   -1.4080 C   0  0  0  0  0  0  0  0  0  0  0  0
  -18.3840   -0.9560   -1.8060 C   0  0  0  0  0  0  0  0  0  0  0  0
  -16.2510   -2.1690   -2.1000 C   0  0  0  0  0  0  0  0  0  0  0  0
  -14.9490   -2.4160   -1.7590 C   0  0  0  0  0  0  0  0  0  0  0  0
  -11.9050   -1.5730   -1.3540 C   0  0  0  0  0  0  0  0  0  0  0  0
  -10.5280   -1.9050   -1.0240 N   0  0  0  0  0  0  0  0  0  0  0  0
   -9.4550   -1.4720   -1.9190 C   0  0  0  0  0  0  0  0  0  0  0  0
   -9.2820   -2.3940   -3.1270 C   0  0  0  0  0  0  0  0  0  0  0  0
   -7.8170   -2.5500   -3.5360 C   0  0  0  0  0  0  0  0  0  0  0  0
   -6.9720   -3.3210   -2.7550 C   0  0  0  0  0  0  0  0  0  0  0  0
   -5.6390   -3.4770   -3.1110 C   0  0  0  0  0  0  0  0  0  0  0  0
   -5.1940   -2.8390   -4.2640 C   0  0  0  0  0  0  0  0  0  0  0  0
   -6.0850   -2.0780   -5.0070 C   0  0  0  0  0  0  0  0  0  0  0  0
   -7.3470   -1.9600   -4.6270 N   0  0  0  0  0  0  0  0  0  0  0  0
  -12.1450   -0.9640   -2.3390 O   0  0  0  0  0  0  0  0  0  0  0  0
  -18.7610   -1.8760   -2.7390 F   0  0  0  0  0  0  0  0  0  0  0  0
  -18.4550    0.3250   -2.2750 F   0  0  0  0  0  0  0  0  0  0  0  0
  -19.1950   -1.1300   -0.7370 F   0  0  0  0  0  0  0  0  0  0  0  0
  -10.0453   -2.0069   -4.3181 C   0  0  0  0  0  0  0  0  0  0  0  0
   -9.8029   -3.7797   -2.8149 O   0  0  0  0  0  0  0  0  0  0  0  0
  -11.0026   -3.0800   -4.9166 C   0  0  0  0  0  0  0  0  0  0  0  0
  -11.8974   -2.4381   -5.6574 F   0  0  0  0  0  0  0  0  0  0  0  0
  -10.4004   -3.9675   -5.6571 F   0  0  0  0  0  0  0  0  0  0  0  0
  -11.9600   -3.6538   -3.8246 C   0  0  0  0  0  0  0  0  0  0  0  0
  -11.3156   -4.8187   -3.3159 C   0  0  0  0  0  0  0  0  0  0  0  0
  1  2  2  0
  2  3  1  0
  2 16  1  0
  3  4  1  0
  3  6  2  0
  4  5  1  0
  6  7  1  0
  7 15  1  0
  7  8  1  0
 11 12  1  0
 12 28  1  0
 12 27  1  0
 12 26  1  0
 15 16  1  0
 15 25  2  0
 16 17  1  0
 17 18  1  0
 18 19  1  0
 18 29  1  0
 18 30  1  0
 29 31  1  0
 31 32  1  0
 31 33  1  0
 31 34  1  0
 30 35  1  0
 34 35  1  0
  8  9  2  0
  9 10  1  0
 10 11  2  0
 11 13  1  0
 13 14  2  0
 14  8  1  0
 19 20  2  0
 20 21  1  0
 21 22  2  0
 22 23  1  0
 23 24  2  0
 24 19  1  0
M  END

$$$$
No_80-gen_results_new/Mpro_new_generate_500/2024-01-19-21-58-56/
     RDKit          3D

 34 36  0  0  0  0  0  0  0  0999 V2000
   -9.1300   -2.9100    0.4520 O   0  0  0  0  0  0  0  0  0  0  0  0
  -10.2490   -2.6420    0.1800 C   0  0  0  0  0  0  0  0  0  0  0  0
  -11.3800   -3.0650    1.0860 C   0  0  0  0  0  0  0  0  0  0  0  0
  -11.2000   -3.8390    2.3880 C   0  0  0  0  0  0  0  0  0  0  0  0
  -10.9900   -5.0690    2.3420 N   0  0  0  0  0  0  0  0  0  0  0  0
  -12.7310   -2.7290    0.7330 N   0  0  0  0  0  0  0  0  0  0  0  0
  -12.9960   -1.9940   -0.4510 N   0  0  0  0  0  0  0  0  0  0  0  0
  -14.3580   -1.6940   -0.7530 C   0  0  0  0  0  0  0  0  0  0  0  0
  -15.0390   -0.7180   -0.0560 C   0  0  0  0  0  0  0  0  0  0  0  0
  -16.3510   -0.4690   -0.3980 C   0  0  0  0  0  0  0  0  0  0  0  0
  -16.9430   -1.2030   -1.4080 C   0  0  0  0  0  0  0  0  0  0  0  0
  -18.3840   -0.9560   -1.8060 C   0  0  0  0  0  0  0  0  0  0  0  0
  -16.2510   -2.1690   -2.1000 C   0  0  0  0  0  0  0  0  0  0  0  0
  -14.9490   -2.4160   -1.7590 C   0  0  0  0  0  0  0  0  0  0  0  0
  -11.9050   -1.5730   -1.3540 C   0  0  0  0  0  0  0  0  0  0  0  0
  -10.5280   -1.9050   -1.0240 N   0  0  0  0  0  0  0  0  0  0  0  0
   -9.4550   -1.4720   -1.9190 C   0  0  0  0  0  0  0  0  0  0  0  0
   -9.2820   -2.3940   -3.1270 C   0  0  0  0  0  0  0  0  0  0  0  0
   -7.8170   -2.5500   -3.5360 C   0  0  0  0  0  0  0  0  0  0  0  0
   -6.9720   -3.3210   -2.7550 C   0  0  0  0  0  0  0  0  0  0  0  0
   -5.6390   -3.4770   -3.1110 C   0  0  0  0  0  0  0  0  0  0  0  0
   -5.1940   -2.8390   -4.2640 C   0  0  0  0  0  0  0  0  0  0  0  0
   -6.0850   -2.0780   -5.0070 C   0  0  0  0  0  0  0  0  0  0  0  0
   -7.3470   -1.9600   -4.6270 N   0  0  0  0  0  0  0  0  0  0  0  0
  -12.1450   -0.9640   -2.3390 O   0  0  0  0  0  0  0  0  0  0  0  0
  -18.7610   -1.8760   -2.7390 F   0  0  0  0  0  0  0  0  0  0  0  0
  -18.4550    0.3250   -2.2750 F   0  0  0  0  0  0  0  0  0  0  0  0
  -19.1950   -1.1300   -0.7370 F   0  0  0  0  0  0  0  0  0  0  0  0
  -10.0899   -3.0088   -3.7244 O   0  0  0  0  0  0  0  0  0  0  0  0
  -16.7844   -3.0180   -3.1233 O   0  0  0  0  0  0  0  0  0  0  0  0
  -16.7281   -4.4242   -2.9973 C   0  0  0  0  0  0  0  0  0  0  0  0
  -17.4271   -5.0868   -2.5483 F   0  0  0  0  0  0  0  0  0  0  0  0
  -16.9110   -4.6619   -4.3987 F   0  0  0  0  0  0  0  0  0  0  0  0
  -15.4005   -4.7156   -2.8124 F   0  0  0  0  0  0  0  0  0  0  0  0
  1  2  2  0
  2  3  1  0
  2 16  1  0
  3  4  1  0
  3  6  2  0
  4  5  1  0
  6  7  1  0
  7 15  1  0
  7  8  1  0
 11 12  1  0
 12 28  1  0
 12 27  1  0
 12 26  1  0
 15 16  1  0
 15 25  2  0
 16 17  1  0
 17 18  1  0
 18 19  1  0
 18 29  2  0
 13 30  1  0
 30 31  1  0
 31 32  1  0
 31 33  1  0
 31 34  1  0
  8  9  2  0
  9 10  1  0
 10 11  2  0
 11 13  1  0
 13 14  2  0
 14  8  1  0
 19 20  2  0
 20 21  1  0
 21 22  2  0
 22 23  1  0
 23 24  2  0
 24 19  1  0
M  END

$$$$
No_81-gen_results_new/Mpro_new_generate_500/2024-01-19-21-58-56/
     RDKit          3D

 33 35  0  0  0  0  0  0  0  0999 V2000
   -9.1300   -2.9100    0.4520 O   0  0  0  0  0  0  0  0  0  0  0  0
  -10.2490   -2.6420    0.1800 C   0  0  0  0  0  0  0  0  0  0  0  0
  -11.3800   -3.0650    1.0860 C   0  0  0  0  0  0  0  0  0  0  0  0
  -11.2000   -3.8390    2.3880 C   0  0  0  0  0  0  0  0  0  0  0  0
  -10.9900   -5.0690    2.3420 N   0  0  0  0  0  0  0  0  0  0  0  0
  -12.7310   -2.7290    0.7330 N   0  0  0  0  0  0  0  0  0  0  0  0
  -12.9960   -1.9940   -0.4510 N   0  0  0  0  0  0  0  0  0  0  0  0
  -14.3580   -1.6940   -0.7530 C   0  0  0  0  0  0  0  0  0  0  0  0
  -15.0390   -0.7180   -0.0560 C   0  0  0  0  0  0  0  0  0  0  0  0
  -16.3510   -0.4690   -0.3980 C   0  0  0  0  0  0  0  0  0  0  0  0
  -16.9430   -1.2030   -1.4080 C   0  0  0  0  0  0  0  0  0  0  0  0
  -18.3840   -0.9560   -1.8060 C   0  0  0  0  0  0  0  0  0  0  0  0
  -16.2510   -2.1690   -2.1000 C   0  0  0  0  0  0  0  0  0  0  0  0
  -14.9490   -2.4160   -1.7590 C   0  0  0  0  0  0  0  0  0  0  0  0
  -11.9050   -1.5730   -1.3540 C   0  0  0  0  0  0  0  0  0  0  0  0
  -10.5280   -1.9050   -1.0240 N   0  0  0  0  0  0  0  0  0  0  0  0
   -9.4550   -1.4720   -1.9190 C   0  0  0  0  0  0  0  0  0  0  0  0
   -9.2820   -2.3940   -3.1270 C   0  0  0  0  0  0  0  0  0  0  0  0
   -7.8170   -2.5500   -3.5360 C   0  0  0  0  0  0  0  0  0  0  0  0
   -6.9720   -3.3210   -2.7550 C   0  0  0  0  0  0  0  0  0  0  0  0
   -5.6390   -3.4770   -3.1110 C   0  0  0  0  0  0  0  0  0  0  0  0
   -5.1940   -2.8390   -4.2640 C   0  0  0  0  0  0  0  0  0  0  0  0
   -6.0850   -2.0780   -5.0070 C   0  0  0  0  0  0  0  0  0  0  0  0
   -7.3470   -1.9600   -4.6270 N   0  0  0  0  0  0  0  0  0  0  0  0
  -12.1450   -0.9640   -2.3390 O   0  0  0  0  0  0  0  0  0  0  0  0
  -18.7610   -1.8760   -2.7390 F   0  0  0  0  0  0  0  0  0  0  0  0
  -18.4550    0.3250   -2.2750 F   0  0  0  0  0  0  0  0  0  0  0  0
  -19.1950   -1.1300   -0.7370 F   0  0  0  0  0  0  0  0  0  0  0  0
  -10.1467   -3.0903   -3.8357 C   0  0  0  0  0  0  0  0  0  0  0  0
  -10.1748   -2.6832   -3.5186 O   0  0  0  0  0  0  0  0  0  0  0  0
  -10.7471   -2.9982   -4.5745 C   0  0  0  0  0  0  0  0  0  0  0  0
  -10.5502   -3.6143   -3.7224 C   0  0  0  0  0  0  0  0  0  0  0  0
  -11.2153   -4.3812   -3.3438 C   0  0  0  0  0  0  0  0  0  0  0  0
  1  2  2  0
  2  3  1  0
  2 16  1  0
  3  4  1  0
  3  6  2  0
  4  5  1  0
  6  7  1  0
  7 15  1  0
  7  8  1  0
 11 12  1  0
 12 28  1  0
 12 27  1  0
 12 26  1  0
 15 16  1  0
 15 25  2  0
 16 17  1  0
 17 18  1  0
 18 19  1  0
 18 29  1  0
 29 30  1  0
 29 31  1  0
 30 32  1  0
 32 33  2  0
  8  9  2  0
  9 10  1  0
 10 11  2  0
 11 13  1  0
 13 14  2  0
 14  8  1  0
 19 20  2  0
 20 21  1  0
 21 22  2  0
 22 23  1  0
 23 24  2  0
 24 19  1  0
M  END

$$$$
No_82-gen_results_new/Mpro_new_generate_500/2024-01-19-21-58-56/
     RDKit          3D

 34 36  0  0  0  0  0  0  0  0999 V2000
   -9.1300   -2.9100    0.4520 O   0  0  0  0  0  0  0  0  0  0  0  0
  -10.2490   -2.6420    0.1800 C   0  0  0  0  0  0  0  0  0  0  0  0
  -11.3800   -3.0650    1.0860 C   0  0  0  0  0  0  0  0  0  0  0  0
  -11.2000   -3.8390    2.3880 C   0  0  0  0  0  0  0  0  0  0  0  0
  -10.9900   -5.0690    2.3420 N   0  0  0  0  0  0  0  0  0  0  0  0
  -12.7310   -2.7290    0.7330 N   0  0  0  0  0  0  0  0  0  0  0  0
  -12.9960   -1.9940   -0.4510 N   0  0  0  0  0  0  0  0  0  0  0  0
  -14.3580   -1.6940   -0.7530 C   0  0  0  0  0  0  0  0  0  0  0  0
  -15.0390   -0.7180   -0.0560 C   0  0  0  0  0  0  0  0  0  0  0  0
  -16.3510   -0.4690   -0.3980 C   0  0  0  0  0  0  0  0  0  0  0  0
  -16.9430   -1.2030   -1.4080 C   0  0  0  0  0  0  0  0  0  0  0  0
  -18.3840   -0.9560   -1.8060 C   0  0  0  0  0  0  0  0  0  0  0  0
  -16.2510   -2.1690   -2.1000 C   0  0  0  0  0  0  0  0  0  0  0  0
  -14.9490   -2.4160   -1.7590 C   0  0  0  0  0  0  0  0  0  0  0  0
  -11.9050   -1.5730   -1.3540 C   0  0  0  0  0  0  0  0  0  0  0  0
  -10.5280   -1.9050   -1.0240 N   0  0  0  0  0  0  0  0  0  0  0  0
   -9.4550   -1.4720   -1.9190 C   0  0  0  0  0  0  0  0  0  0  0  0
   -9.2820   -2.3940   -3.1270 C   0  0  0  0  0  0  0  0  0  0  0  0
   -7.8170   -2.5500   -3.5360 C   0  0  0  0  0  0  0  0  0  0  0  0
   -6.9720   -3.3210   -2.7550 C   0  0  0  0  0  0  0  0  0  0  0  0
   -5.6390   -3.4770   -3.1110 C   0  0  0  0  0  0  0  0  0  0  0  0
   -5.1940   -2.8390   -4.2640 C   0  0  0  0  0  0  0  0  0  0  0  0
   -6.0850   -2.0780   -5.0070 C   0  0  0  0  0  0  0  0  0  0  0  0
   -7.3470   -1.9600   -4.6270 N   0  0  0  0  0  0  0  0  0  0  0  0
  -12.1450   -0.9640   -2.3390 O   0  0  0  0  0  0  0  0  0  0  0  0
  -18.7610   -1.8760   -2.7390 F   0  0  0  0  0  0  0  0  0  0  0  0
  -18.4550    0.3250   -2.2750 F   0  0  0  0  0  0  0  0  0  0  0  0
  -19.1950   -1.1300   -0.7370 F   0  0  0  0  0  0  0  0  0  0  0  0
  -10.0453   -2.0069   -4.3181 C   0  0  0  0  0  0  0  0  0  0  0  0
   -9.8476   -3.8948   -2.8015 C   0  0  0  0  0  0  0  0  0  0  0  0
  -10.9871   -4.2370   -3.4678 C   0  0  0  0  0  0  0  0  0  0  0  0
  -10.8610   -5.1456   -3.8848 F   0  0  0  0  0  0  0  0  0  0  0  0
  -12.2897   -3.6231   -3.4446 C   0  0  0  0  0  0  0  0  0  0  0  0
   -9.3709   -4.6576   -1.9735 O   0  0  0  0  0  0  0  0  0  0  0  0
  1  2  2  0
  2  3  1  0
  2 16  1  0
  3  4  1  0
  3  6  2  0
  4  5  1  0
  6  7  1  0
  7 15  1  0
  7  8  1  0
 11 12  1  0
 12 28  1  0
 12 27  1  0
 12 26  1  0
 15 16  1  0
 15 25  2  0
 16 17  1  0
 17 18  1  0
 18 19  1  0
 18 29  1  0
 18 30  1  0
 30 31  1  0
 31 32  1  0
 31 33  1  0
 30 34  2  0
  8  9  2  0
  9 10  1  0
 10 11  2  0
 11 13  1  0
 13 14  2  0
 14  8  1  0
 19 20  2  0
 20 21  1  0
 21 22  2  0
 22 23  1  0
 23 24  2  0
 24 19  1  0
M  END

$$$$
No_83-gen_results_new/Mpro_new_generate_500/2024-01-19-21-58-56/
     RDKit          3D

 35 37  0  0  0  0  0  0  0  0999 V2000
   -9.1300   -2.9100    0.4520 O   0  0  0  0  0  0  0  0  0  0  0  0
  -10.2490   -2.6420    0.1800 C   0  0  0  0  0  0  0  0  0  0  0  0
  -11.3800   -3.0650    1.0860 C   0  0  0  0  0  0  0  0  0  0  0  0
  -11.2000   -3.8390    2.3880 C   0  0  0  0  0  0  0  0  0  0  0  0
  -10.9900   -5.0690    2.3420 N   0  0  0  0  0  0  0  0  0  0  0  0
  -12.7310   -2.7290    0.7330 N   0  0  0  0  0  0  0  0  0  0  0  0
  -12.9960   -1.9940   -0.4510 N   0  0  0  0  0  0  0  0  0  0  0  0
  -14.3580   -1.6940   -0.7530 C   0  0  0  0  0  0  0  0  0  0  0  0
  -15.0390   -0.7180   -0.0560 C   0  0  0  0  0  0  0  0  0  0  0  0
  -16.3510   -0.4690   -0.3980 C   0  0  0  0  0  0  0  0  0  0  0  0
  -16.9430   -1.2030   -1.4080 C   0  0  0  0  0  0  0  0  0  0  0  0
  -18.3840   -0.9560   -1.8060 C   0  0  0  0  0  0  0  0  0  0  0  0
  -16.2510   -2.1690   -2.1000 C   0  0  0  0  0  0  0  0  0  0  0  0
  -14.9490   -2.4160   -1.7590 C   0  0  0  0  0  0  0  0  0  0  0  0
  -11.9050   -1.5730   -1.3540 C   0  0  0  0  0  0  0  0  0  0  0  0
  -10.5280   -1.9050   -1.0240 N   0  0  0  0  0  0  0  0  0  0  0  0
   -9.4550   -1.4720   -1.9190 C   0  0  0  0  0  0  0  0  0  0  0  0
   -9.2820   -2.3940   -3.1270 C   0  0  0  0  0  0  0  0  0  0  0  0
   -7.8170   -2.5500   -3.5360 C   0  0  0  0  0  0  0  0  0  0  0  0
   -6.9720   -3.3210   -2.7550 C   0  0  0  0  0  0  0  0  0  0  0  0
   -5.6390   -3.4770   -3.1110 C   0  0  0  0  0  0  0  0  0  0  0  0
   -5.1940   -2.8390   -4.2640 C   0  0  0  0  0  0  0  0  0  0  0  0
   -6.0850   -2.0780   -5.0070 C   0  0  0  0  0  0  0  0  0  0  0  0
   -7.3470   -1.9600   -4.6270 N   0  0  0  0  0  0  0  0  0  0  0  0
  -12.1450   -0.9640   -2.3390 O   0  0  0  0  0  0  0  0  0  0  0  0
  -18.7610   -1.8760   -2.7390 F   0  0  0  0  0  0  0  0  0  0  0  0
  -18.4550    0.3250   -2.2750 F   0  0  0  0  0  0  0  0  0  0  0  0
  -19.1950   -1.1300   -0.7370 F   0  0  0  0  0  0  0  0  0  0  0  0
   -9.7920   -3.7475   -2.8656 C   0  0  0  0  0  0  0  0  0  0  0  0
  -10.0717   -1.8029   -4.3549 C   0  0  0  0  0  0  0  0  0  0  0  0
  -10.0419   -4.6597   -4.1091 C   0  0  0  0  0  0  0  0  0  0  0  0
  -11.3071   -4.7341   -4.3555 O   0  0  0  0  0  0  0  0  0  0  0  0
   -9.2667   -5.4381   -4.5353 O   0  0  0  0  0  0  0  0  0  0  0  0
  -12.4245   -4.9578   -3.6051 C   0  0  0  0  0  0  0  0  0  0  0  0
   -9.4368   -6.0029   -5.8454 C   0  0  0  0  0  0  0  0  0  0  0  0
  1  2  2  0
  2  3  1  0
  2 16  1  0
  3  4  1  0
  3  6  2  0
  4  5  1  0
  6  7  1  0
  7 15  1  0
  7  8  1  0
 11 12  1  0
 12 28  1  0
 12 27  1  0
 12 26  1  0
 15 16  1  0
 15 25  2  0
 16 17  1  0
 17 18  1  0
 18 19  1  0
 18 29  1  0
 18 30  1  0
 29 31  1  0
 31 32  1  0
 31 33  1  0
 32 34  1  0
 33 35  1  0
  8  9  2  0
  9 10  1  0
 10 11  2  0
 11 13  1  0
 13 14  2  0
 14  8  1  0
 19 20  2  0
 20 21  1  0
 21 22  2  0
 22 23  1  0
 23 24  2  0
 24 19  1  0
M  END

$$$$
No_84-gen_results_new/Mpro_new_generate_500/2024-01-19-21-58-56/
     RDKit          3D

 34 36  0  0  0  0  0  0  0  0999 V2000
   -9.1300   -2.9100    0.4520 O   0  0  0  0  0  0  0  0  0  0  0  0
  -10.2490   -2.6420    0.1800 C   0  0  0  0  0  0  0  0  0  0  0  0
  -11.3800   -3.0650    1.0860 C   0  0  0  0  0  0  0  0  0  0  0  0
  -11.2000   -3.8390    2.3880 C   0  0  0  0  0  0  0  0  0  0  0  0
  -10.9900   -5.0690    2.3420 N   0  0  0  0  0  0  0  0  0  0  0  0
  -12.7310   -2.7290    0.7330 N   0  0  0  0  0  0  0  0  0  0  0  0
  -12.9960   -1.9940   -0.4510 N   0  0  0  0  0  0  0  0  0  0  0  0
  -14.3580   -1.6940   -0.7530 C   0  0  0  0  0  0  0  0  0  0  0  0
  -15.0390   -0.7180   -0.0560 C   0  0  0  0  0  0  0  0  0  0  0  0
  -16.3510   -0.4690   -0.3980 C   0  0  0  0  0  0  0  0  0  0  0  0
  -16.9430   -1.2030   -1.4080 C   0  0  0  0  0  0  0  0  0  0  0  0
  -18.3840   -0.9560   -1.8060 C   0  0  0  0  0  0  0  0  0  0  0  0
  -16.2510   -2.1690   -2.1000 C   0  0  0  0  0  0  0  0  0  0  0  0
  -14.9490   -2.4160   -1.7590 C   0  0  0  0  0  0  0  0  0  0  0  0
  -11.9050   -1.5730   -1.3540 C   0  0  0  0  0  0  0  0  0  0  0  0
  -10.5280   -1.9050   -1.0240 N   0  0  0  0  0  0  0  0  0  0  0  0
   -9.4550   -1.4720   -1.9190 C   0  0  0  0  0  0  0  0  0  0  0  0
   -9.2820   -2.3940   -3.1270 C   0  0  0  0  0  0  0  0  0  0  0  0
   -7.8170   -2.5500   -3.5360 C   0  0  0  0  0  0  0  0  0  0  0  0
   -6.9720   -3.3210   -2.7550 C   0  0  0  0  0  0  0  0  0  0  0  0
   -5.6390   -3.4770   -3.1110 C   0  0  0  0  0  0  0  0  0  0  0  0
   -5.1940   -2.8390   -4.2640 C   0  0  0  0  0  0  0  0  0  0  0  0
   -6.0850   -2.0780   -5.0070 C   0  0  0  0  0  0  0  0  0  0  0  0
   -7.3470   -1.9600   -4.6270 N   0  0  0  0  0  0  0  0  0  0  0  0
  -12.1450   -0.9640   -2.3390 O   0  0  0  0  0  0  0  0  0  0  0  0
  -18.7610   -1.8760   -2.7390 F   0  0  0  0  0  0  0  0  0  0  0  0
  -18.4550    0.3250   -2.2750 F   0  0  0  0  0  0  0  0  0  0  0  0
  -19.1950   -1.1300   -0.7370 F   0  0  0  0  0  0  0  0  0  0  0  0
   -9.7920   -3.7475   -2.8656 C   0  0  0  0  0  0  0  0  0  0  0  0
  -10.0717   -1.8029   -4.3549 C   0  0  0  0  0  0  0  0  0  0  0  0
   -9.2295   -4.7877   -2.1591 C   0  0  0  0  0  0  0  0  0  0  0  0
  -11.3540   -4.2730   -3.6141 S   0  0  0  0  0  0  0  0  0  0  0  0
  -10.9674   -4.4970   -4.9127 O   0  0  0  0  0  0  0  0  0  0  0  0
  -11.9552   -5.3413   -2.8750 O   0  0  0  0  0  0  0  0  0  0  0  0
  1  2  2  0
  2  3  1  0
  2 16  1  0
  3  4  1  0
  3  6  2  0
  4  5  1  0
  6  7  1  0
  7 15  1  0
  7  8  1  0
 11 12  1  0
 12 28  1  0
 12 27  1  0
 12 26  1  0
 15 16  1  0
 15 25  2  0
 16 17  1  0
 17 18  1  0
 18 19  1  0
 18 29  1  0
 18 30  1  0
 29 31  2  0
 29 32  1  0
 32 33  2  0
 32 34  2  0
  8  9  2  0
  9 10  1  0
 10 11  2  0
 11 13  1  0
 13 14  2  0
 14  8  1  0
 19 20  2  0
 20 21  1  0
 21 22  2  0
 22 23  1  0
 23 24  2  0
 24 19  1  0
M  END

$$$$
No_85-gen_results_new/Mpro_new_generate_500/2024-01-19-21-58-56/
     RDKit          3D

 33 35  0  0  0  0  0  0  0  0999 V2000
   -9.1300   -2.9100    0.4520 O   0  0  0  0  0  0  0  0  0  0  0  0
  -10.2490   -2.6420    0.1800 C   0  0  0  0  0  0  0  0  0  0  0  0
  -11.3800   -3.0650    1.0860 C   0  0  0  0  0  0  0  0  0  0  0  0
  -11.2000   -3.8390    2.3880 C   0  0  0  0  0  0  0  0  0  0  0  0
  -10.9900   -5.0690    2.3420 N   0  0  0  0  0  0  0  0  0  0  0  0
  -12.7310   -2.7290    0.7330 N   0  0  0  0  0  0  0  0  0  0  0  0
  -12.9960   -1.9940   -0.4510 N   0  0  0  0  0  0  0  0  0  0  0  0
  -14.3580   -1.6940   -0.7530 C   0  0  0  0  0  0  0  0  0  0  0  0
  -15.0390   -0.7180   -0.0560 C   0  0  0  0  0  0  0  0  0  0  0  0
  -16.3510   -0.4690   -0.3980 C   0  0  0  0  0  0  0  0  0  0  0  0
  -16.9430   -1.2030   -1.4080 C   0  0  0  0  0  0  0  0  0  0  0  0
  -18.3840   -0.9560   -1.8060 C   0  0  0  0  0  0  0  0  0  0  0  0
  -16.2510   -2.1690   -2.1000 C   0  0  0  0  0  0  0  0  0  0  0  0
  -14.9490   -2.4160   -1.7590 C   0  0  0  0  0  0  0  0  0  0  0  0
  -11.9050   -1.5730   -1.3540 C   0  0  0  0  0  0  0  0  0  0  0  0
  -10.5280   -1.9050   -1.0240 N   0  0  0  0  0  0  0  0  0  0  0  0
   -9.4550   -1.4720   -1.9190 C   0  0  0  0  0  0  0  0  0  0  0  0
   -9.2820   -2.3940   -3.1270 C   0  0  0  0  0  0  0  0  0  0  0  0
   -7.8170   -2.5500   -3.5360 C   0  0  0  0  0  0  0  0  0  0  0  0
   -6.9720   -3.3210   -2.7550 C   0  0  0  0  0  0  0  0  0  0  0  0
   -5.6390   -3.4770   -3.1110 C   0  0  0  0  0  0  0  0  0  0  0  0
   -5.1940   -2.8390   -4.2640 C   0  0  0  0  0  0  0  0  0  0  0  0
   -6.0850   -2.0780   -5.0070 C   0  0  0  0  0  0  0  0  0  0  0  0
   -7.3470   -1.9600   -4.6270 N   0  0  0  0  0  0  0  0  0  0  0  0
  -12.1450   -0.9640   -2.3390 O   0  0  0  0  0  0  0  0  0  0  0  0
  -18.7610   -1.8760   -2.7390 F   0  0  0  0  0  0  0  0  0  0  0  0
  -18.4550    0.3250   -2.2750 F   0  0  0  0  0  0  0  0  0  0  0  0
  -19.1950   -1.1300   -0.7370 F   0  0  0  0  0  0  0  0  0  0  0  0
   -9.7920   -3.7475   -2.8656 C   0  0  0  0  0  0  0  0  0  0  0  0
   -9.9778   -1.5944   -4.2803 C   0  0  0  0  0  0  0  0  0  0  0  0
  -10.1294   -4.2271   -1.8649 F   0  0  0  0  0  0  0  0  0  0  0  0
   -9.5356   -4.7296   -3.8759 C   0  0  0  0  0  0  0  0  0  0  0  0
  -10.9690   -3.4866   -2.9360 F   0  0  0  0  0  0  0  0  0  0  0  0
  1  2  2  0
  2  3  1  0
  2 16  1  0
  3  4  1  0
  3  6  2  0
  4  5  1  0
  6  7  1  0
  7 15  1  0
  7  8  1  0
 11 12  1  0
 12 28  1  0
 12 27  1  0
 12 26  1  0
 15 16  1  0
 15 25  2  0
 16 17  1  0
 17 18  1  0
 18 19  1  0
 18 29  1  0
 18 30  1  0
 29 31  1  0
 29 32  1  0
 29 33  1  0
  8  9  2  0
  9 10  1  0
 10 11  2  0
 11 13  1  0
 13 14  2  0
 14  8  1  0
 19 20  2  0
 20 21  1  0
 21 22  2  0
 22 23  1  0
 23 24  2  0
 24 19  1  0
M  END

$$$$
No_86-gen_results_new/Mpro_new_generate_500/2024-01-19-21-58-56/
     RDKit          3D

 31 33  0  0  0  0  0  0  0  0999 V2000
   -9.1300   -2.9100    0.4520 O   0  0  0  0  0  0  0  0  0  0  0  0
  -10.2490   -2.6420    0.1800 C   0  0  0  0  0  0  0  0  0  0  0  0
  -11.3800   -3.0650    1.0860 C   0  0  0  0  0  0  0  0  0  0  0  0
  -11.2000   -3.8390    2.3880 C   0  0  0  0  0  0  0  0  0  0  0  0
  -10.9900   -5.0690    2.3420 N   0  0  0  0  0  0  0  0  0  0  0  0
  -12.7310   -2.7290    0.7330 N   0  0  0  0  0  0  0  0  0  0  0  0
  -12.9960   -1.9940   -0.4510 N   0  0  0  0  0  0  0  0  0  0  0  0
  -14.3580   -1.6940   -0.7530 C   0  0  0  0  0  0  0  0  0  0  0  0
  -15.0390   -0.7180   -0.0560 C   0  0  0  0  0  0  0  0  0  0  0  0
  -16.3510   -0.4690   -0.3980 C   0  0  0  0  0  0  0  0  0  0  0  0
  -16.9430   -1.2030   -1.4080 C   0  0  0  0  0  0  0  0  0  0  0  0
  -18.3840   -0.9560   -1.8060 C   0  0  0  0  0  0  0  0  0  0  0  0
  -16.2510   -2.1690   -2.1000 C   0  0  0  0  0  0  0  0  0  0  0  0
  -14.9490   -2.4160   -1.7590 C   0  0  0  0  0  0  0  0  0  0  0  0
  -11.9050   -1.5730   -1.3540 C   0  0  0  0  0  0  0  0  0  0  0  0
  -10.5280   -1.9050   -1.0240 N   0  0  0  0  0  0  0  0  0  0  0  0
   -9.4550   -1.4720   -1.9190 C   0  0  0  0  0  0  0  0  0  0  0  0
   -9.2820   -2.3940   -3.1270 C   0  0  0  0  0  0  0  0  0  0  0  0
   -7.8170   -2.5500   -3.5360 C   0  0  0  0  0  0  0  0  0  0  0  0
   -6.9720   -3.3210   -2.7550 C   0  0  0  0  0  0  0  0  0  0  0  0
   -5.6390   -3.4770   -3.1110 C   0  0  0  0  0  0  0  0  0  0  0  0
   -5.1940   -2.8390   -4.2640 C   0  0  0  0  0  0  0  0  0  0  0  0
   -6.0850   -2.0780   -5.0070 C   0  0  0  0  0  0  0  0  0  0  0  0
   -7.3470   -1.9600   -4.6270 N   0  0  0  0  0  0  0  0  0  0  0  0
  -12.1450   -0.9640   -2.3390 O   0  0  0  0  0  0  0  0  0  0  0  0
  -18.7610   -1.8760   -2.7390 F   0  0  0  0  0  0  0  0  0  0  0  0
  -18.4550    0.3250   -2.2750 F   0  0  0  0  0  0  0  0  0  0  0  0
  -19.1950   -1.1300   -0.7370 F   0  0  0  0  0  0  0  0  0  0  0  0
  -10.1467   -3.0903   -3.8357 C   0  0  0  0  0  0  0  0  0  0  0  0
  -10.1681   -2.5855   -3.6007 C   0  0  0  0  0  0  0  0  0  0  0  0
  -11.0590   -1.9567   -4.8372 C   0  0  0  0  0  0  0  0  0  0  0  0
  1  2  2  0
  2  3  1  0
  2 16  1  0
  3  4  1  0
  3  6  2  0
  4  5  1  0
  6  7  1  0
  7 15  1  0
  7  8  1  0
 11 12  1  0
 12 28  1  0
 12 27  1  0
 12 26  1  0
 15 16  1  0
 15 25  2  0
 16 17  1  0
 17 18  1  0
 18 19  1  0
 18 29  1  0
 29 30  2  0
 29 31  1  0
  8  9  2  0
  9 10  1  0
 10 11  2  0
 11 13  1  0
 13 14  2  0
 14  8  1  0
 19 20  2  0
 20 21  1  0
 21 22  2  0
 22 23  1  0
 23 24  2  0
 24 19  1  0
M  END

$$$$
No_87-gen_results_new/Mpro_new_generate_500/2024-01-19-21-58-56/
     RDKit          3D

 32 34  0  0  0  0  0  0  0  0999 V2000
   -9.1300   -2.9100    0.4520 O   0  0  0  0  0  0  0  0  0  0  0  0
  -10.2490   -2.6420    0.1800 C   0  0  0  0  0  0  0  0  0  0  0  0
  -11.3800   -3.0650    1.0860 C   0  0  0  0  0  0  0  0  0  0  0  0
  -11.2000   -3.8390    2.3880 C   0  0  0  0  0  0  0  0  0  0  0  0
  -10.9900   -5.0690    2.3420 N   0  0  0  0  0  0  0  0  0  0  0  0
  -12.7310   -2.7290    0.7330 N   0  0  0  0  0  0  0  0  0  0  0  0
  -12.9960   -1.9940   -0.4510 N   0  0  0  0  0  0  0  0  0  0  0  0
  -14.3580   -1.6940   -0.7530 C   0  0  0  0  0  0  0  0  0  0  0  0
  -15.0390   -0.7180   -0.0560 C   0  0  0  0  0  0  0  0  0  0  0  0
  -16.3510   -0.4690   -0.3980 C   0  0  0  0  0  0  0  0  0  0  0  0
  -16.9430   -1.2030   -1.4080 C   0  0  0  0  0  0  0  0  0  0  0  0
  -18.3840   -0.9560   -1.8060 C   0  0  0  0  0  0  0  0  0  0  0  0
  -16.2510   -2.1690   -2.1000 C   0  0  0  0  0  0  0  0  0  0  0  0
  -14.9490   -2.4160   -1.7590 C   0  0  0  0  0  0  0  0  0  0  0  0
  -11.9050   -1.5730   -1.3540 C   0  0  0  0  0  0  0  0  0  0  0  0
  -10.5280   -1.9050   -1.0240 N   0  0  0  0  0  0  0  0  0  0  0  0
   -9.4550   -1.4720   -1.9190 C   0  0  0  0  0  0  0  0  0  0  0  0
   -9.2820   -2.3940   -3.1270 C   0  0  0  0  0  0  0  0  0  0  0  0
   -7.8170   -2.5500   -3.5360 C   0  0  0  0  0  0  0  0  0  0  0  0
   -6.9720   -3.3210   -2.7550 C   0  0  0  0  0  0  0  0  0  0  0  0
   -5.6390   -3.4770   -3.1110 C   0  0  0  0  0  0  0  0  0  0  0  0
   -5.1940   -2.8390   -4.2640 C   0  0  0  0  0  0  0  0  0  0  0  0
   -6.0850   -2.0780   -5.0070 C   0  0  0  0  0  0  0  0  0  0  0  0
   -7.3470   -1.9600   -4.6270 N   0  0  0  0  0  0  0  0  0  0  0  0
  -12.1450   -0.9640   -2.3390 O   0  0  0  0  0  0  0  0  0  0  0  0
  -18.7610   -1.8760   -2.7390 F   0  0  0  0  0  0  0  0  0  0  0  0
  -18.4550    0.3250   -2.2750 F   0  0  0  0  0  0  0  0  0  0  0  0
  -19.1950   -1.1300   -0.7370 F   0  0  0  0  0  0  0  0  0  0  0  0
  -10.1467   -3.0903   -3.8357 C   0  0  0  0  0  0  0  0  0  0  0  0
  -10.1748   -2.6832   -3.5186 O   0  0  0  0  0  0  0  0  0  0  0  0
  -10.3765   -2.3268   -4.6334 C   0  0  0  0  0  0  0  0  0  0  0  0
   -9.2891   -3.4382   -2.5496 F   0  0  0  0  0  0  0  0  0  0  0  0
  1  2  2  0
  2  3  1  0
  2 16  1  0
  3  4  1  0
  3  6  2  0
  4  5  1  0
  6  7  1  0
  7 15  1  0
  7  8  1  0
 11 12  1  0
 12 28  1  0
 12 27  1  0
 12 26  1  0
 15 16  1  0
 15 25  2  0
 16 17  1  0
 17 18  1  0
 18 19  1  0
 18 29  1  0
 29 30  1  0
 30 31  1  0
 18 32  1  0
  8  9  2  0
  9 10  1  0
 10 11  2  0
 11 13  1  0
 13 14  2  0
 14  8  1  0
 19 20  2  0
 20 21  1  0
 21 22  2  0
 22 23  1  0
 23 24  2  0
 24 19  1  0
M  END

$$$$
No_88-gen_results_new/Mpro_new_generate_500/2024-01-19-21-58-56/
     RDKit          3D

 35 38  0  0  0  0  0  0  0  0999 V2000
   -9.1300   -2.9100    0.4520 O   0  0  0  0  0  0  0  0  0  0  0  0
  -10.2490   -2.6420    0.1800 C   0  0  0  0  0  0  0  0  0  0  0  0
  -11.3800   -3.0650    1.0860 C   0  0  0  0  0  0  0  0  0  0  0  0
  -11.2000   -3.8390    2.3880 C   0  0  0  0  0  0  0  0  0  0  0  0
  -10.9900   -5.0690    2.3420 N   0  0  0  0  0  0  0  0  0  0  0  0
  -12.7310   -2.7290    0.7330 N   0  0  0  0  0  0  0  0  0  0  0  0
  -12.9960   -1.9940   -0.4510 N   0  0  0  0  0  0  0  0  0  0  0  0
  -14.3580   -1.6940   -0.7530 C   0  0  0  0  0  0  0  0  0  0  0  0
  -15.0390   -0.7180   -0.0560 C   0  0  0  0  0  0  0  0  0  0  0  0
  -16.3510   -0.4690   -0.3980 C   0  0  0  0  0  0  0  0  0  0  0  0
  -16.9430   -1.2030   -1.4080 C   0  0  0  0  0  0  0  0  0  0  0  0
  -18.3840   -0.9560   -1.8060 C   0  0  0  0  0  0  0  0  0  0  0  0
  -16.2510   -2.1690   -2.1000 C   0  0  0  0  0  0  0  0  0  0  0  0
  -14.9490   -2.4160   -1.7590 C   0  0  0  0  0  0  0  0  0  0  0  0
  -11.9050   -1.5730   -1.3540 C   0  0  0  0  0  0  0  0  0  0  0  0
  -10.5280   -1.9050   -1.0240 N   0  0  0  0  0  0  0  0  0  0  0  0
   -9.4550   -1.4720   -1.9190 C   0  0  0  0  0  0  0  0  0  0  0  0
   -9.2820   -2.3940   -3.1270 C   0  0  0  0  0  0  0  0  0  0  0  0
   -7.8170   -2.5500   -3.5360 C   0  0  0  0  0  0  0  0  0  0  0  0
   -6.9720   -3.3210   -2.7550 C   0  0  0  0  0  0  0  0  0  0  0  0
   -5.6390   -3.4770   -3.1110 C   0  0  0  0  0  0  0  0  0  0  0  0
   -5.1940   -2.8390   -4.2640 C   0  0  0  0  0  0  0  0  0  0  0  0
   -6.0850   -2.0780   -5.0070 C   0  0  0  0  0  0  0  0  0  0  0  0
   -7.3470   -1.9600   -4.6270 N   0  0  0  0  0  0  0  0  0  0  0  0
  -12.1450   -0.9640   -2.3390 O   0  0  0  0  0  0  0  0  0  0  0  0
  -18.7610   -1.8760   -2.7390 F   0  0  0  0  0  0  0  0  0  0  0  0
  -18.4550    0.3250   -2.2750 F   0  0  0  0  0  0  0  0  0  0  0  0
  -19.1950   -1.1300   -0.7370 F   0  0  0  0  0  0  0  0  0  0  0  0
   -9.7920   -3.7475   -2.8656 C   0  0  0  0  0  0  0  0  0  0  0  0
  -10.0717   -1.8029   -4.3549 C   0  0  0  0  0  0  0  0  0  0  0  0
  -10.0419   -4.6597   -4.1091 C   0  0  0  0  0  0  0  0  0  0  0  0
  -10.3271   -4.0944   -5.2068 O   0  0  0  0  0  0  0  0  0  0  0  0
  -10.6195   -2.6984   -5.2717 C   0  0  0  0  0  0  0  0  0  0  0  0
  -12.0799   -2.4628   -5.1436 C   0  0  0  0  0  0  0  0  0  0  0  0
   -9.7363   -6.0324   -4.0700 C   0  0  0  0  0  0  0  0  0  0  0  0
  1  2  2  0
  2  3  1  0
  2 16  1  0
  3  4  1  0
  3  6  2  0
  4  5  1  0
  6  7  1  0
  7 15  1  0
  7  8  1  0
 11 12  1  0
 12 28  1  0
 12 27  1  0
 12 26  1  0
 15 16  1  0
 15 25  2  0
 16 17  1  0
 17 18  1  0
 18 19  1  0
 18 29  1  0
 18 30  1  0
 29 31  2  0
 31 32  1  0
 30 33  1  0
 32 33  1  0
 33 34  1  0
 31 35  1  0
  8  9  2  0
  9 10  1  0
 10 11  2  0
 11 13  1  0
 13 14  2  0
 14  8  1  0
 19 20  2  0
 20 21  1  0
 21 22  2  0
 22 23  1  0
 23 24  2  0
 24 19  1  0
M  END

$$$$
No_89-gen_results_new/Mpro_new_generate_500/2024-01-19-21-58-56/
     RDKit          3D

 35 38  0  0  0  0  0  0  0  0999 V2000
   -9.1300   -2.9100    0.4520 O   0  0  0  0  0  0  0  0  0  0  0  0
  -10.2490   -2.6420    0.1800 C   0  0  0  0  0  0  0  0  0  0  0  0
  -11.3800   -3.0650    1.0860 C   0  0  0  0  0  0  0  0  0  0  0  0
  -11.2000   -3.8390    2.3880 C   0  0  0  0  0  0  0  0  0  0  0  0
  -10.9900   -5.0690    2.3420 N   0  0  0  0  0  0  0  0  0  0  0  0
  -12.7310   -2.7290    0.7330 N   0  0  0  0  0  0  0  0  0  0  0  0
  -12.9960   -1.9940   -0.4510 N   0  0  0  0  0  0  0  0  0  0  0  0
  -14.3580   -1.6940   -0.7530 C   0  0  0  0  0  0  0  0  0  0  0  0
  -15.0390   -0.7180   -0.0560 C   0  0  0  0  0  0  0  0  0  0  0  0
  -16.3510   -0.4690   -0.3980 C   0  0  0  0  0  0  0  0  0  0  0  0
  -16.9430   -1.2030   -1.4080 C   0  0  0  0  0  0  0  0  0  0  0  0
  -18.3840   -0.9560   -1.8060 C   0  0  0  0  0  0  0  0  0  0  0  0
  -16.2510   -2.1690   -2.1000 C   0  0  0  0  0  0  0  0  0  0  0  0
  -14.9490   -2.4160   -1.7590 C   0  0  0  0  0  0  0  0  0  0  0  0
  -11.9050   -1.5730   -1.3540 C   0  0  0  0  0  0  0  0  0  0  0  0
  -10.5280   -1.9050   -1.0240 N   0  0  0  0  0  0  0  0  0  0  0  0
   -9.4550   -1.4720   -1.9190 C   0  0  0  0  0  0  0  0  0  0  0  0
   -9.2820   -2.3940   -3.1270 C   0  0  0  0  0  0  0  0  0  0  0  0
   -7.8170   -2.5500   -3.5360 C   0  0  0  0  0  0  0  0  0  0  0  0
   -6.9720   -3.3210   -2.7550 C   0  0  0  0  0  0  0  0  0  0  0  0
   -5.6390   -3.4770   -3.1110 C   0  0  0  0  0  0  0  0  0  0  0  0
   -5.1940   -2.8390   -4.2640 C   0  0  0  0  0  0  0  0  0  0  0  0
   -6.0850   -2.0780   -5.0070 C   0  0  0  0  0  0  0  0  0  0  0  0
   -7.3470   -1.9600   -4.6270 N   0  0  0  0  0  0  0  0  0  0  0  0
  -12.1450   -0.9640   -2.3390 O   0  0  0  0  0  0  0  0  0  0  0  0
  -18.7610   -1.8760   -2.7390 F   0  0  0  0  0  0  0  0  0  0  0  0
  -18.4550    0.3250   -2.2750 F   0  0  0  0  0  0  0  0  0  0  0  0
  -19.1950   -1.1300   -0.7370 F   0  0  0  0  0  0  0  0  0  0  0  0
   -9.7920   -3.7475   -2.8656 C   0  0  0  0  0  0  0  0  0  0  0  0
  -10.1387   -2.0206   -4.2903 C   0  0  0  0  0  0  0  0  0  0  0  0
  -10.7383   -4.2958   -3.7467 C   0  0  0  0  0  0  0  0  0  0  0  0
  -11.7046   -5.3891   -3.5055 C   0  0  0  0  0  0  0  0  0  0  0  0
  -12.3347   -5.6833   -4.7442 O   0  0  0  0  0  0  0  0  0  0  0  0
  -11.1216   -3.0667   -4.5321 C   0  0  0  0  0  0  0  0  0  0  0  0
  -11.6692   -5.9986   -5.7970 C   0  0  0  0  0  0  0  0  0  0  0  0
  1  2  2  0
  2  3  1  0
  2 16  1  0
  3  4  1  0
  3  6  2  0
  4  5  1  0
  6  7  1  0
  7 15  1  0
  7  8  1  0
 11 12  1  0
 12 28  1  0
 12 27  1  0
 12 26  1  0
 15 16  1  0
 15 25  2  0
 16 17  1  0
 17 18  1  0
 18 19  1  0
 18 29  1  0
 18 30  1  0
 29 31  1  0
 31 32  1  0
 32 33  1  0
 30 34  1  0
 31 34  1  0
 33 35  1  0
  8  9  2  0
  9 10  1  0
 10 11  2  0
 11 13  1  0
 13 14  2  0
 14  8  1  0
 19 20  2  0
 20 21  1  0
 21 22  2  0
 22 23  1  0
 23 24  2  0
 24 19  1  0
M  END

$$$$
No_90-gen_results_new/Mpro_new_generate_500/2024-01-19-21-58-56/
     RDKit          3D

 31 33  0  0  0  0  0  0  0  0999 V2000
   -9.1300   -2.9100    0.4520 O   0  0  0  0  0  0  0  0  0  0  0  0
  -10.2490   -2.6420    0.1800 C   0  0  0  0  0  0  0  0  0  0  0  0
  -11.3800   -3.0650    1.0860 C   0  0  0  0  0  0  0  0  0  0  0  0
  -11.2000   -3.8390    2.3880 C   0  0  0  0  0  0  0  0  0  0  0  0
  -10.9900   -5.0690    2.3420 N   0  0  0  0  0  0  0  0  0  0  0  0
  -12.7310   -2.7290    0.7330 N   0  0  0  0  0  0  0  0  0  0  0  0
  -12.9960   -1.9940   -0.4510 N   0  0  0  0  0  0  0  0  0  0  0  0
  -14.3580   -1.6940   -0.7530 C   0  0  0  0  0  0  0  0  0  0  0  0
  -15.0390   -0.7180   -0.0560 C   0  0  0  0  0  0  0  0  0  0  0  0
  -16.3510   -0.4690   -0.3980 C   0  0  0  0  0  0  0  0  0  0  0  0
  -16.9430   -1.2030   -1.4080 C   0  0  0  0  0  0  0  0  0  0  0  0
  -18.3840   -0.9560   -1.8060 C   0  0  0  0  0  0  0  0  0  0  0  0
  -16.2510   -2.1690   -2.1000 C   0  0  0  0  0  0  0  0  0  0  0  0
  -14.9490   -2.4160   -1.7590 C   0  0  0  0  0  0  0  0  0  0  0  0
  -11.9050   -1.5730   -1.3540 C   0  0  0  0  0  0  0  0  0  0  0  0
  -10.5280   -1.9050   -1.0240 N   0  0  0  0  0  0  0  0  0  0  0  0
   -9.4550   -1.4720   -1.9190 C   0  0  0  0  0  0  0  0  0  0  0  0
   -9.2820   -2.3940   -3.1270 C   0  0  0  0  0  0  0  0  0  0  0  0
   -7.8170   -2.5500   -3.5360 C   0  0  0  0  0  0  0  0  0  0  0  0
   -6.9720   -3.3210   -2.7550 C   0  0  0  0  0  0  0  0  0  0  0  0
   -5.6390   -3.4770   -3.1110 C   0  0  0  0  0  0  0  0  0  0  0  0
   -5.1940   -2.8390   -4.2640 C   0  0  0  0  0  0  0  0  0  0  0  0
   -6.0850   -2.0780   -5.0070 C   0  0  0  0  0  0  0  0  0  0  0  0
   -7.3470   -1.9600   -4.6270 N   0  0  0  0  0  0  0  0  0  0  0  0
  -12.1450   -0.9640   -2.3390 O   0  0  0  0  0  0  0  0  0  0  0  0
  -18.7610   -1.8760   -2.7390 F   0  0  0  0  0  0  0  0  0  0  0  0
  -18.4550    0.3250   -2.2750 F   0  0  0  0  0  0  0  0  0  0  0  0
  -19.1950   -1.1300   -0.7370 F   0  0  0  0  0  0  0  0  0  0  0  0
  -10.1467   -3.0903   -3.8357 C   0  0  0  0  0  0  0  0  0  0  0  0
  -10.1681   -2.5855   -3.6007 C   0  0  0  0  0  0  0  0  0  0  0  0
  -11.3245   -1.6028   -4.7941 Cl  0  0  0  0  0  0  0  0  0  0  0  0
  1  2  2  0
  2  3  1  0
  2 16  1  0
  3  4  1  0
  3  6  2  0
  4  5  1  0
  6  7  1  0
  7 15  1  0
  7  8  1  0
 11 12  1  0
 12 28  1  0
 12 27  1  0
 12 26  1  0
 15 16  1  0
 15 25  2  0
 16 17  1  0
 17 18  1  0
 18 19  1  0
 18 29  1  0
 29 30  2  3
 30 31  1  0
  8  9  2  0
  9 10  1  0
 10 11  2  0
 11 13  1  0
 13 14  2  0
 14  8  1  0
 19 20  2  0
 20 21  1  0
 21 22  2  0
 22 23  1  0
 23 24  2  0
 24 19  1  0
M  END

$$$$
No_91-gen_results_new/Mpro_new_generate_500/2024-01-19-21-58-56/
     RDKit          3D

 35 37  0  0  0  0  0  0  0  0999 V2000
   -9.1300   -2.9100    0.4520 O   0  0  0  0  0  0  0  0  0  0  0  0
  -10.2490   -2.6420    0.1800 C   0  0  0  0  0  0  0  0  0  0  0  0
  -11.3800   -3.0650    1.0860 C   0  0  0  0  0  0  0  0  0  0  0  0
  -11.2000   -3.8390    2.3880 C   0  0  0  0  0  0  0  0  0  0  0  0
  -10.9900   -5.0690    2.3420 N   0  0  0  0  0  0  0  0  0  0  0  0
  -12.7310   -2.7290    0.7330 N   0  0  0  0  0  0  0  0  0  0  0  0
  -12.9960   -1.9940   -0.4510 N   0  0  0  0  0  0  0  0  0  0  0  0
  -14.3580   -1.6940   -0.7530 C   0  0  0  0  0  0  0  0  0  0  0  0
  -15.0390   -0.7180   -0.0560 C   0  0  0  0  0  0  0  0  0  0  0  0
  -16.3510   -0.4690   -0.3980 C   0  0  0  0  0  0  0  0  0  0  0  0
  -16.9430   -1.2030   -1.4080 C   0  0  0  0  0  0  0  0  0  0  0  0
  -18.3840   -0.9560   -1.8060 C   0  0  0  0  0  0  0  0  0  0  0  0
  -16.2510   -2.1690   -2.1000 C   0  0  0  0  0  0  0  0  0  0  0  0
  -14.9490   -2.4160   -1.7590 C   0  0  0  0  0  0  0  0  0  0  0  0
  -11.9050   -1.5730   -1.3540 C   0  0  0  0  0  0  0  0  0  0  0  0
  -10.5280   -1.9050   -1.0240 N   0  0  0  0  0  0  0  0  0  0  0  0
   -9.4550   -1.4720   -1.9190 C   0  0  0  0  0  0  0  0  0  0  0  0
   -9.2820   -2.3940   -3.1270 C   0  0  0  0  0  0  0  0  0  0  0  0
   -7.8170   -2.5500   -3.5360 C   0  0  0  0  0  0  0  0  0  0  0  0
   -6.9720   -3.3210   -2.7550 C   0  0  0  0  0  0  0  0  0  0  0  0
   -5.6390   -3.4770   -3.1110 C   0  0  0  0  0  0  0  0  0  0  0  0
   -5.1940   -2.8390   -4.2640 C   0  0  0  0  0  0  0  0  0  0  0  0
   -6.0850   -2.0780   -5.0070 C   0  0  0  0  0  0  0  0  0  0  0  0
   -7.3470   -1.9600   -4.6270 N   0  0  0  0  0  0  0  0  0  0  0  0
  -12.1450   -0.9640   -2.3390 O   0  0  0  0  0  0  0  0  0  0  0  0
  -18.7610   -1.8760   -2.7390 F   0  0  0  0  0  0  0  0  0  0  0  0
  -18.4550    0.3250   -2.2750 F   0  0  0  0  0  0  0  0  0  0  0  0
  -19.1950   -1.1300   -0.7370 F   0  0  0  0  0  0  0  0  0  0  0  0
  -10.0453   -2.0069   -4.3181 C   0  0  0  0  0  0  0  0  0  0  0  0
   -9.8029   -3.7797   -2.8149 O   0  0  0  0  0  0  0  0  0  0  0  0
  -11.0026   -3.0800   -4.9166 C   0  0  0  0  0  0  0  0  0  0  0  0
  -11.4917   -3.8260   -4.1213 O   0  0  0  0  0  0  0  0  0  0  0  0
   -9.2399   -4.9226   -3.1252 C   0  0  0  0  0  0  0  0  0  0  0  0
  -12.7246   -4.4561   -4.4667 C   0  0  0  0  0  0  0  0  0  0  0  0
  -13.6324   -4.7721   -3.1954 C   0  0  0  0  0  0  0  0  0  0  0  0
  1  2  2  0
  2  3  1  0
  2 16  1  0
  3  4  1  0
  3  6  2  0
  4  5  1  0
  6  7  1  0
  7 15  1  0
  7  8  1  0
 11 12  1  0
 12 28  1  0
 12 27  1  0
 12 26  1  0
 15 16  1  0
 15 25  2  0
 16 17  1  0
 17 18  1  0
 18 19  1  0
 18 29  1  0
 18 30  1  0
 29 31  1  0
 31 32  1  0
 30 33  1  0
 32 34  1  0
 34 35  1  0
  8  9  2  0
  9 10  1  0
 10 11  2  0
 11 13  1  0
 13 14  2  0
 14  8  1  0
 19 20  2  0
 20 21  1  0
 21 22  2  0
 22 23  1  0
 23 24  2  0
 24 19  1  0
M  END

$$$$
No_92-gen_results_new/Mpro_new_generate_500/2024-01-19-21-58-56/
     RDKit          3D

 34 36  0  0  0  0  0  0  0  0999 V2000
   -9.1300   -2.9100    0.4520 O   0  0  0  0  0  0  0  0  0  0  0  0
  -10.2490   -2.6420    0.1800 C   0  0  0  0  0  0  0  0  0  0  0  0
  -11.3800   -3.0650    1.0860 C   0  0  0  0  0  0  0  0  0  0  0  0
  -11.2000   -3.8390    2.3880 C   0  0  0  0  0  0  0  0  0  0  0  0
  -10.9900   -5.0690    2.3420 N   0  0  0  0  0  0  0  0  0  0  0  0
  -12.7310   -2.7290    0.7330 N   0  0  0  0  0  0  0  0  0  0  0  0
  -12.9960   -1.9940   -0.4510 N   0  0  0  0  0  0  0  0  0  0  0  0
  -14.3580   -1.6940   -0.7530 C   0  0  0  0  0  0  0  0  0  0  0  0
  -15.0390   -0.7180   -0.0560 C   0  0  0  0  0  0  0  0  0  0  0  0
  -16.3510   -0.4690   -0.3980 C   0  0  0  0  0  0  0  0  0  0  0  0
  -16.9430   -1.2030   -1.4080 C   0  0  0  0  0  0  0  0  0  0  0  0
  -18.3840   -0.9560   -1.8060 C   0  0  0  0  0  0  0  0  0  0  0  0
  -16.2510   -2.1690   -2.1000 C   0  0  0  0  0  0  0  0  0  0  0  0
  -14.9490   -2.4160   -1.7590 C   0  0  0  0  0  0  0  0  0  0  0  0
  -11.9050   -1.5730   -1.3540 C   0  0  0  0  0  0  0  0  0  0  0  0
  -10.5280   -1.9050   -1.0240 N   0  0  0  0  0  0  0  0  0  0  0  0
   -9.4550   -1.4720   -1.9190 C   0  0  0  0  0  0  0  0  0  0  0  0
   -9.2820   -2.3940   -3.1270 C   0  0  0  0  0  0  0  0  0  0  0  0
   -7.8170   -2.5500   -3.5360 C   0  0  0  0  0  0  0  0  0  0  0  0
   -6.9720   -3.3210   -2.7550 C   0  0  0  0  0  0  0  0  0  0  0  0
   -5.6390   -3.4770   -3.1110 C   0  0  0  0  0  0  0  0  0  0  0  0
   -5.1940   -2.8390   -4.2640 C   0  0  0  0  0  0  0  0  0  0  0  0
   -6.0850   -2.0780   -5.0070 C   0  0  0  0  0  0  0  0  0  0  0  0
   -7.3470   -1.9600   -4.6270 N   0  0  0  0  0  0  0  0  0  0  0  0
  -12.1450   -0.9640   -2.3390 O   0  0  0  0  0  0  0  0  0  0  0  0
  -18.7610   -1.8760   -2.7390 F   0  0  0  0  0  0  0  0  0  0  0  0
  -18.4550    0.3250   -2.2750 F   0  0  0  0  0  0  0  0  0  0  0  0
  -19.1950   -1.1300   -0.7370 F   0  0  0  0  0  0  0  0  0  0  0  0
   -9.7920   -3.7475   -2.8656 C   0  0  0  0  0  0  0  0  0  0  0  0
  -10.0717   -1.8029   -4.3549 C   0  0  0  0  0  0  0  0  0  0  0  0
   -9.3562   -4.4506   -1.8919 O   0  0  0  0  0  0  0  0  0  0  0  0
  -10.4420   -4.8374   -4.0452 S   0  0  0  0  0  0  0  0  0  0  0  0
   -9.8095   -4.9500   -5.0341 O   0  0  0  0  0  0  0  0  0  0  0  0
  -11.8485   -5.0238   -3.9203 O   0  0  0  0  0  0  0  0  0  0  0  0
  1  2  2  0
  2  3  1  0
  2 16  1  0
  3  4  1  0
  3  6  2  0
  4  5  1  0
  6  7  1  0
  7 15  1  0
  7  8  1  0
 11 12  1  0
 12 28  1  0
 12 27  1  0
 12 26  1  0
 15 16  1  0
 15 25  2  0
 16 17  1  0
 17 18  1  0
 18 19  1  0
 18 29  1  0
 18 30  1  0
 29 31  2  0
 29 32  1  0
 32 33  2  0
 32 34  2  0
  8  9  2  0
  9 10  1  0
 10 11  2  0
 11 13  1  0
 13 14  2  0
 14  8  1  0
 19 20  2  0
 20 21  1  0
 21 22  2  0
 22 23  1  0
 23 24  2  0
 24 19  1  0
M  END

$$$$
No_93-gen_results_new/Mpro_new_generate_500/2024-01-19-21-58-56/
     RDKit          3D

 35 37  0  0  0  0  0  0  0  0999 V2000
   -9.1300   -2.9100    0.4520 O   0  0  0  0  0  0  0  0  0  0  0  0
  -10.2490   -2.6420    0.1800 C   0  0  0  0  0  0  0  0  0  0  0  0
  -11.3800   -3.0650    1.0860 C   0  0  0  0  0  0  0  0  0  0  0  0
  -11.2000   -3.8390    2.3880 C   0  0  0  0  0  0  0  0  0  0  0  0
  -10.9900   -5.0690    2.3420 N   0  0  0  0  0  0  0  0  0  0  0  0
  -12.7310   -2.7290    0.7330 N   0  0  0  0  0  0  0  0  0  0  0  0
  -12.9960   -1.9940   -0.4510 N   0  0  0  0  0  0  0  0  0  0  0  0
  -14.3580   -1.6940   -0.7530 C   0  0  0  0  0  0  0  0  0  0  0  0
  -15.0390   -0.7180   -0.0560 C   0  0  0  0  0  0  0  0  0  0  0  0
  -16.3510   -0.4690   -0.3980 C   0  0  0  0  0  0  0  0  0  0  0  0
  -16.9430   -1.2030   -1.4080 C   0  0  0  0  0  0  0  0  0  0  0  0
  -18.3840   -0.9560   -1.8060 C   0  0  0  0  0  0  0  0  0  0  0  0
  -16.2510   -2.1690   -2.1000 C   0  0  0  0  0  0  0  0  0  0  0  0
  -14.9490   -2.4160   -1.7590 C   0  0  0  0  0  0  0  0  0  0  0  0
  -11.9050   -1.5730   -1.3540 C   0  0  0  0  0  0  0  0  0  0  0  0
  -10.5280   -1.9050   -1.0240 N   0  0  0  0  0  0  0  0  0  0  0  0
   -9.4550   -1.4720   -1.9190 C   0  0  0  0  0  0  0  0  0  0  0  0
   -9.2820   -2.3940   -3.1270 C   0  0  0  0  0  0  0  0  0  0  0  0
   -7.8170   -2.5500   -3.5360 C   0  0  0  0  0  0  0  0  0  0  0  0
   -6.9720   -3.3210   -2.7550 C   0  0  0  0  0  0  0  0  0  0  0  0
   -5.6390   -3.4770   -3.1110 C   0  0  0  0  0  0  0  0  0  0  0  0
   -5.1940   -2.8390   -4.2640 C   0  0  0  0  0  0  0  0  0  0  0  0
   -6.0850   -2.0780   -5.0070 C   0  0  0  0  0  0  0  0  0  0  0  0
   -7.3470   -1.9600   -4.6270 N   0  0  0  0  0  0  0  0  0  0  0  0
  -12.1450   -0.9640   -2.3390 O   0  0  0  0  0  0  0  0  0  0  0  0
  -18.7610   -1.8760   -2.7390 F   0  0  0  0  0  0  0  0  0  0  0  0
  -18.4550    0.3250   -2.2750 F   0  0  0  0  0  0  0  0  0  0  0  0
  -19.1950   -1.1300   -0.7370 F   0  0  0  0  0  0  0  0  0  0  0  0
   -9.7920   -3.7475   -2.8656 C   0  0  0  0  0  0  0  0  0  0  0  0
  -10.0268   -1.9037   -4.2201 F   0  0  0  0  0  0  0  0  0  0  0  0
   -9.4208   -4.5644   -2.0217 O   0  0  0  0  0  0  0  0  0  0  0  0
  -10.9138   -4.4449   -3.5911 C   0  0  0  0  0  0  0  0  0  0  0  0
  -12.0828   -4.8190   -3.1296 C   0  0  0  0  0  0  0  0  0  0  0  0
  -12.8636   -5.4990   -3.9119 O   0  0  0  0  0  0  0  0  0  0  0  0
  -14.0824   -5.8694   -3.2461 C   0  0  0  0  0  0  0  0  0  0  0  0
  1  2  2  0
  2  3  1  0
  2 16  1  0
  3  4  1  0
  3  6  2  0
  4  5  1  0
  6  7  1  0
  7 15  1  0
  7  8  1  0
 11 12  1  0
 12 28  1  0
 12 27  1  0
 12 26  1  0
 15 16  1  0
 15 25  2  0
 16 17  1  0
 17 18  1  0
 18 19  1  0
 18 29  1  0
 18 30  1  0
 29 31  2  0
 29 32  1  0
 32 33  1  0
 33 34  1  0
 34 35  1  0
  8  9  2  0
  9 10  1  0
 10 11  2  0
 11 13  1  0
 13 14  2  0
 14  8  1  0
 19 20  2  0
 20 21  1  0
 21 22  2  0
 22 23  1  0
 23 24  2  0
 24 19  1  0
M  END

$$$$
No_94-gen_results_new/Mpro_new_generate_500/2024-01-19-21-58-56/
     RDKit          3D

 35 37  0  0  0  0  0  0  0  0999 V2000
   -9.1300   -2.9100    0.4520 O   0  0  0  0  0  0  0  0  0  0  0  0
  -10.2490   -2.6420    0.1800 C   0  0  0  0  0  0  0  0  0  0  0  0
  -11.3800   -3.0650    1.0860 C   0  0  0  0  0  0  0  0  0  0  0  0
  -11.2000   -3.8390    2.3880 C   0  0  0  0  0  0  0  0  0  0  0  0
  -10.9900   -5.0690    2.3420 N   0  0  0  0  0  0  0  0  0  0  0  0
  -12.7310   -2.7290    0.7330 N   0  0  0  0  0  0  0  0  0  0  0  0
  -12.9960   -1.9940   -0.4510 N   0  0  0  0  0  0  0  0  0  0  0  0
  -14.3580   -1.6940   -0.7530 C   0  0  0  0  0  0  0  0  0  0  0  0
  -15.0390   -0.7180   -0.0560 C   0  0  0  0  0  0  0  0  0  0  0  0
  -16.3510   -0.4690   -0.3980 C   0  0  0  0  0  0  0  0  0  0  0  0
  -16.9430   -1.2030   -1.4080 C   0  0  0  0  0  0  0  0  0  0  0  0
  -18.3840   -0.9560   -1.8060 C   0  0  0  0  0  0  0  0  0  0  0  0
  -16.2510   -2.1690   -2.1000 C   0  0  0  0  0  0  0  0  0  0  0  0
  -14.9490   -2.4160   -1.7590 C   0  0  0  0  0  0  0  0  0  0  0  0
  -11.9050   -1.5730   -1.3540 C   0  0  0  0  0  0  0  0  0  0  0  0
  -10.5280   -1.9050   -1.0240 N   0  0  0  0  0  0  0  0  0  0  0  0
   -9.4550   -1.4720   -1.9190 C   0  0  0  0  0  0  0  0  0  0  0  0
   -9.2820   -2.3940   -3.1270 C   0  0  0  0  0  0  0  0  0  0  0  0
   -7.8170   -2.5500   -3.5360 C   0  0  0  0  0  0  0  0  0  0  0  0
   -6.9720   -3.3210   -2.7550 C   0  0  0  0  0  0  0  0  0  0  0  0
   -5.6390   -3.4770   -3.1110 C   0  0  0  0  0  0  0  0  0  0  0  0
   -5.1940   -2.8390   -4.2640 C   0  0  0  0  0  0  0  0  0  0  0  0
   -6.0850   -2.0780   -5.0070 C   0  0  0  0  0  0  0  0  0  0  0  0
   -7.3470   -1.9600   -4.6270 N   0  0  0  0  0  0  0  0  0  0  0  0
  -12.1450   -0.9640   -2.3390 O   0  0  0  0  0  0  0  0  0  0  0  0
  -18.7610   -1.8760   -2.7390 F   0  0  0  0  0  0  0  0  0  0  0  0
  -18.4550    0.3250   -2.2750 F   0  0  0  0  0  0  0  0  0  0  0  0
  -19.1950   -1.1300   -0.7370 F   0  0  0  0  0  0  0  0  0  0  0  0
  -10.0453   -2.0069   -4.3181 C   0  0  0  0  0  0  0  0  0  0  0  0
   -9.8476   -3.8948   -2.8015 C   0  0  0  0  0  0  0  0  0  0  0  0
  -10.9610   -3.7422   -2.4157 F   0  0  0  0  0  0  0  0  0  0  0  0
   -9.0174   -4.4107   -1.8019 F   0  0  0  0  0  0  0  0  0  0  0  0
   -9.8658   -4.7619   -4.1241 C   0  0  0  0  0  0  0  0  0  0  0  0
  -10.9415   -4.9715   -4.9045 C   0  0  0  0  0  0  0  0  0  0  0  0
  -10.8231   -5.7470   -6.1034 C   0  0  0  0  0  0  0  0  0  0  0  0
  1  2  2  0
  2  3  1  0
  2 16  1  0
  3  4  1  0
  3  6  2  0
  4  5  1  0
  6  7  1  0
  7 15  1  0
  7  8  1  0
 11 12  1  0
 12 28  1  0
 12 27  1  0
 12 26  1  0
 15 16  1  0
 15 25  2  0
 16 17  1  0
 17 18  1  0
 18 19  1  0
 18 29  1  0
 18 30  1  0
 30 31  1  0
 30 32  1  0
 30 33  1  0
 33 34  2  3
 34 35  1  0
  8  9  2  0
  9 10  1  0
 10 11  2  0
 11 13  1  0
 13 14  2  0
 14  8  1  0
 19 20  2  0
 20 21  1  0
 21 22  2  0
 22 23  1  0
 23 24  2  0
 24 19  1  0
M  END

$$$$
No_95-gen_results_new/Mpro_new_generate_500/2024-01-19-21-58-56/
     RDKit          3D

 35 38  0  0  0  0  0  0  0  0999 V2000
   -9.1300   -2.9100    0.4520 O   0  0  0  0  0  0  0  0  0  0  0  0
  -10.2490   -2.6420    0.1800 C   0  0  0  0  0  0  0  0  0  0  0  0
  -11.3800   -3.0650    1.0860 C   0  0  0  0  0  0  0  0  0  0  0  0
  -11.2000   -3.8390    2.3880 C   0  0  0  0  0  0  0  0  0  0  0  0
  -10.9900   -5.0690    2.3420 N   0  0  0  0  0  0  0  0  0  0  0  0
  -12.7310   -2.7290    0.7330 N   0  0  0  0  0  0  0  0  0  0  0  0
  -12.9960   -1.9940   -0.4510 N   0  0  0  0  0  0  0  0  0  0  0  0
  -14.3580   -1.6940   -0.7530 C   0  0  0  0  0  0  0  0  0  0  0  0
  -15.0390   -0.7180   -0.0560 C   0  0  0  0  0  0  0  0  0  0  0  0
  -16.3510   -0.4690   -0.3980 C   0  0  0  0  0  0  0  0  0  0  0  0
  -16.9430   -1.2030   -1.4080 C   0  0  0  0  0  0  0  0  0  0  0  0
  -18.3840   -0.9560   -1.8060 C   0  0  0  0  0  0  0  0  0  0  0  0
  -16.2510   -2.1690   -2.1000 C   0  0  0  0  0  0  0  0  0  0  0  0
  -14.9490   -2.4160   -1.7590 C   0  0  0  0  0  0  0  0  0  0  0  0
  -11.9050   -1.5730   -1.3540 C   0  0  0  0  0  0  0  0  0  0  0  0
  -10.5280   -1.9050   -1.0240 N   0  0  0  0  0  0  0  0  0  0  0  0
   -9.4550   -1.4720   -1.9190 C   0  0  0  0  0  0  0  0  0  0  0  0
   -9.2820   -2.3940   -3.1270 C   0  0  0  0  0  0  0  0  0  0  0  0
   -7.8170   -2.5500   -3.5360 C   0  0  0  0  0  0  0  0  0  0  0  0
   -6.9720   -3.3210   -2.7550 C   0  0  0  0  0  0  0  0  0  0  0  0
   -5.6390   -3.4770   -3.1110 C   0  0  0  0  0  0  0  0  0  0  0  0
   -5.1940   -2.8390   -4.2640 C   0  0  0  0  0  0  0  0  0  0  0  0
   -6.0850   -2.0780   -5.0070 C   0  0  0  0  0  0  0  0  0  0  0  0
   -7.3470   -1.9600   -4.6270 N   0  0  0  0  0  0  0  0  0  0  0  0
  -12.1450   -0.9640   -2.3390 O   0  0  0  0  0  0  0  0  0  0  0  0
  -18.7610   -1.8760   -2.7390 F   0  0  0  0  0  0  0  0  0  0  0  0
  -18.4550    0.3250   -2.2750 F   0  0  0  0  0  0  0  0  0  0  0  0
  -19.1950   -1.1300   -0.7370 F   0  0  0  0  0  0  0  0  0  0  0  0
  -10.0453   -2.0069   -4.3181 C   0  0  0  0  0  0  0  0  0  0  0  0
   -9.8476   -3.8948   -2.8015 C   0  0  0  0  0  0  0  0  0  0  0  0
  -10.1714   -4.7331   -3.9309 C   0  0  0  0  0  0  0  0  0  0  0  0
  -10.1706   -6.0308   -3.5979 O   0  0  0  0  0  0  0  0  0  0  0  0
   -9.4459   -6.4041   -2.5012 C   0  0  0  0  0  0  0  0  0  0  0  0
   -9.4606   -5.2902   -1.7276 O   0  0  0  0  0  0  0  0  0  0  0  0
   -7.9273   -6.7536   -2.5862 C   0  0  0  0  0  0  0  0  0  0  0  0
  1  2  2  0
  2  3  1  0
  2 16  1  0
  3  4  1  0
  3  6  2  0
  4  5  1  0
  6  7  1  0
  7 15  1  0
  7  8  1  0
 11 12  1  0
 12 28  1  0
 12 27  1  0
 12 26  1  0
 15 16  1  0
 15 25  2  0
 16 17  1  0
 17 18  1  0
 18 19  1  0
 18 29  1  0
 18 30  1  0
 30 31  2  0
 31 32  1  0
 32 33  1  0
 30 34  1  0
 33 34  1  0
 33 35  1  0
  8  9  2  0
  9 10  1  0
 10 11  2  0
 11 13  1  0
 13 14  2  0
 14  8  1  0
 19 20  2  0
 20 21  1  0
 21 22  2  0
 22 23  1  0
 23 24  2  0
 24 19  1  0
M  END

$$$$
No_96-gen_results_new/Mpro_new_generate_500/2024-01-19-21-58-56/
     RDKit          3D

 34 36  0  0  0  0  0  0  0  0999 V2000
   -9.1300   -2.9100    0.4520 O   0  0  0  0  0  0  0  0  0  0  0  0
  -10.2490   -2.6420    0.1800 C   0  0  0  0  0  0  0  0  0  0  0  0
  -11.3800   -3.0650    1.0860 C   0  0  0  0  0  0  0  0  0  0  0  0
  -11.2000   -3.8390    2.3880 C   0  0  0  0  0  0  0  0  0  0  0  0
  -10.9900   -5.0690    2.3420 N   0  0  0  0  0  0  0  0  0  0  0  0
  -12.7310   -2.7290    0.7330 N   0  0  0  0  0  0  0  0  0  0  0  0
  -12.9960   -1.9940   -0.4510 N   0  0  0  0  0  0  0  0  0  0  0  0
  -14.3580   -1.6940   -0.7530 C   0  0  0  0  0  0  0  0  0  0  0  0
  -15.0390   -0.7180   -0.0560 C   0  0  0  0  0  0  0  0  0  0  0  0
  -16.3510   -0.4690   -0.3980 C   0  0  0  0  0  0  0  0  0  0  0  0
  -16.9430   -1.2030   -1.4080 C   0  0  0  0  0  0  0  0  0  0  0  0
  -18.3840   -0.9560   -1.8060 C   0  0  0  0  0  0  0  0  0  0  0  0
  -16.2510   -2.1690   -2.1000 C   0  0  0  0  0  0  0  0  0  0  0  0
  -14.9490   -2.4160   -1.7590 C   0  0  0  0  0  0  0  0  0  0  0  0
  -11.9050   -1.5730   -1.3540 C   0  0  0  0  0  0  0  0  0  0  0  0
  -10.5280   -1.9050   -1.0240 N   0  0  0  0  0  0  0  0  0  0  0  0
   -9.4550   -1.4720   -1.9190 C   0  0  0  0  0  0  0  0  0  0  0  0
   -9.2820   -2.3940   -3.1270 C   0  0  0  0  0  0  0  0  0  0  0  0
   -7.8170   -2.5500   -3.5360 C   0  0  0  0  0  0  0  0  0  0  0  0
   -6.9720   -3.3210   -2.7550 C   0  0  0  0  0  0  0  0  0  0  0  0
   -5.6390   -3.4770   -3.1110 C   0  0  0  0  0  0  0  0  0  0  0  0
   -5.1940   -2.8390   -4.2640 C   0  0  0  0  0  0  0  0  0  0  0  0
   -6.0850   -2.0780   -5.0070 C   0  0  0  0  0  0  0  0  0  0  0  0
   -7.3470   -1.9600   -4.6270 N   0  0  0  0  0  0  0  0  0  0  0  0
  -12.1450   -0.9640   -2.3390 O   0  0  0  0  0  0  0  0  0  0  0  0
  -18.7610   -1.8760   -2.7390 F   0  0  0  0  0  0  0  0  0  0  0  0
  -18.4550    0.3250   -2.2750 F   0  0  0  0  0  0  0  0  0  0  0  0
  -19.1950   -1.1300   -0.7370 F   0  0  0  0  0  0  0  0  0  0  0  0
  -10.0453   -2.0069   -4.3181 C   0  0  0  0  0  0  0  0  0  0  0  0
   -9.8476   -3.8948   -2.8015 C   0  0  0  0  0  0  0  0  0  0  0  0
   -9.1680   -4.8526   -2.1325 C   0  0  0  0  0  0  0  0  0  0  0  0
  -11.0732   -4.5014   -3.6984 S   0  0  0  0  0  0  0  0  0  0  0  0
  -10.6111   -4.4505   -4.7912 O   0  0  0  0  0  0  0  0  0  0  0  0
  -12.3288   -3.9925   -3.2023 O   0  0  0  0  0  0  0  0  0  0  0  0
  1  2  2  0
  2  3  1  0
  2 16  1  0
  3  4  1  0
  3  6  2  0
  4  5  1  0
  6  7  1  0
  7 15  1  0
  7  8  1  0
 11 12  1  0
 12 28  1  0
 12 27  1  0
 12 26  1  0
 15 16  1  0
 15 25  2  0
 16 17  1  0
 17 18  1  0
 18 19  1  0
 18 29  1  0
 18 30  1  0
 30 31  1  0
 30 32  1  0
 32 33  2  0
 32 34  2  0
  8  9  2  0
  9 10  1  0
 10 11  2  0
 11 13  1  0
 13 14  2  0
 14  8  1  0
 19 20  2  0
 20 21  1  0
 21 22  2  0
 22 23  1  0
 23 24  2  0
 24 19  1  0
M  END

$$$$
No_97-gen_results_new/Mpro_new_generate_500/2024-01-19-21-58-56/
     RDKit          3D

 35 37  0  0  0  0  0  0  0  0999 V2000
   -9.1300   -2.9100    0.4520 O   0  0  0  0  0  0  0  0  0  0  0  0
  -10.2490   -2.6420    0.1800 C   0  0  0  0  0  0  0  0  0  0  0  0
  -11.3800   -3.0650    1.0860 C   0  0  0  0  0  0  0  0  0  0  0  0
  -11.2000   -3.8390    2.3880 C   0  0  0  0  0  0  0  0  0  0  0  0
  -10.9900   -5.0690    2.3420 N   0  0  0  0  0  0  0  0  0  0  0  0
  -12.7310   -2.7290    0.7330 N   0  0  0  0  0  0  0  0  0  0  0  0
  -12.9960   -1.9940   -0.4510 N   0  0  0  0  0  0  0  0  0  0  0  0
  -14.3580   -1.6940   -0.7530 C   0  0  0  0  0  0  0  0  0  0  0  0
  -15.0390   -0.7180   -0.0560 C   0  0  0  0  0  0  0  0  0  0  0  0
  -16.3510   -0.4690   -0.3980 C   0  0  0  0  0  0  0  0  0  0  0  0
  -16.9430   -1.2030   -1.4080 C   0  0  0  0  0  0  0  0  0  0  0  0
  -18.3840   -0.9560   -1.8060 C   0  0  0  0  0  0  0  0  0  0  0  0
  -16.2510   -2.1690   -2.1000 C   0  0  0  0  0  0  0  0  0  0  0  0
  -14.9490   -2.4160   -1.7590 C   0  0  0  0  0  0  0  0  0  0  0  0
  -11.9050   -1.5730   -1.3540 C   0  0  0  0  0  0  0  0  0  0  0  0
  -10.5280   -1.9050   -1.0240 N   0  0  0  0  0  0  0  0  0  0  0  0
   -9.4550   -1.4720   -1.9190 C   0  0  0  0  0  0  0  0  0  0  0  0
   -9.2820   -2.3940   -3.1270 C   0  0  0  0  0  0  0  0  0  0  0  0
   -7.8170   -2.5500   -3.5360 C   0  0  0  0  0  0  0  0  0  0  0  0
   -6.9720   -3.3210   -2.7550 C   0  0  0  0  0  0  0  0  0  0  0  0
   -5.6390   -3.4770   -3.1110 C   0  0  0  0  0  0  0  0  0  0  0  0
   -5.1940   -2.8390   -4.2640 C   0  0  0  0  0  0  0  0  0  0  0  0
   -6.0850   -2.0780   -5.0070 C   0  0  0  0  0  0  0  0  0  0  0  0
   -7.3470   -1.9600   -4.6270 N   0  0  0  0  0  0  0  0  0  0  0  0
  -12.1450   -0.9640   -2.3390 O   0  0  0  0  0  0  0  0  0  0  0  0
  -18.7610   -1.8760   -2.7390 F   0  0  0  0  0  0  0  0  0  0  0  0
  -18.4550    0.3250   -2.2750 F   0  0  0  0  0  0  0  0  0  0  0  0
  -19.1950   -1.1300   -0.7370 F   0  0  0  0  0  0  0  0  0  0  0  0
   -9.7920   -3.7475   -2.8656 C   0  0  0  0  0  0  0  0  0  0  0  0
  -10.0717   -1.8029   -4.3549 C   0  0  0  0  0  0  0  0  0  0  0  0
  -10.8758   -3.7619   -2.5647 F   0  0  0  0  0  0  0  0  0  0  0  0
   -9.7385   -4.6055   -4.0492 F   0  0  0  0  0  0  0  0  0  0  0  0
   -9.0603   -4.3503   -1.8426 O   0  0  0  0  0  0  0  0  0  0  0  0
   -8.4925   -5.4782   -2.2318 C   0  0  0  0  0  0  0  0  0  0  0  0
   -9.1501   -6.5730   -1.2816 C   0  0  0  0  0  0  0  0  0  0  0  0
  1  2  2  0
  2  3  1  0
  2 16  1  0
  3  4  1  0
  3  6  2  0
  4  5  1  0
  6  7  1  0
  7 15  1  0
  7  8  1  0
 11 12  1  0
 12 28  1  0
 12 27  1  0
 12 26  1  0
 15 16  1  0
 15 25  2  0
 16 17  1  0
 17 18  1  0
 18 19  1  0
 18 29  1  0
 18 30  1  0
 29 31  1  0
 29 32  1  0
 29 33  1  0
 33 34  1  0
 34 35  1  0
  8  9  2  0
  9 10  1  0
 10 11  2  0
 11 13  1  0
 13 14  2  0
 14  8  1  0
 19 20  2  0
 20 21  1  0
 21 22  2  0
 22 23  1  0
 23 24  2  0
 24 19  1  0
M  END

$$$$
No_98-gen_results_new/Mpro_new_generate_500/2024-01-19-21-58-56/
     RDKit          3D

 35 38  0  0  0  0  0  0  0  0999 V2000
   -9.1300   -2.9100    0.4520 O   0  0  0  0  0  0  0  0  0  0  0  0
  -10.2490   -2.6420    0.1800 C   0  0  0  0  0  0  0  0  0  0  0  0
  -11.3800   -3.0650    1.0860 C   0  0  0  0  0  0  0  0  0  0  0  0
  -11.2000   -3.8390    2.3880 C   0  0  0  0  0  0  0  0  0  0  0  0
  -10.9900   -5.0690    2.3420 N   0  0  0  0  0  0  0  0  0  0  0  0
  -12.7310   -2.7290    0.7330 N   0  0  0  0  0  0  0  0  0  0  0  0
  -12.9960   -1.9940   -0.4510 N   0  0  0  0  0  0  0  0  0  0  0  0
  -14.3580   -1.6940   -0.7530 C   0  0  0  0  0  0  0  0  0  0  0  0
  -15.0390   -0.7180   -0.0560 C   0  0  0  0  0  0  0  0  0  0  0  0
  -16.3510   -0.4690   -0.3980 C   0  0  0  0  0  0  0  0  0  0  0  0
  -16.9430   -1.2030   -1.4080 C   0  0  0  0  0  0  0  0  0  0  0  0
  -18.3840   -0.9560   -1.8060 C   0  0  0  0  0  0  0  0  0  0  0  0
  -16.2510   -2.1690   -2.1000 C   0  0  0  0  0  0  0  0  0  0  0  0
  -14.9490   -2.4160   -1.7590 C   0  0  0  0  0  0  0  0  0  0  0  0
  -11.9050   -1.5730   -1.3540 C   0  0  0  0  0  0  0  0  0  0  0  0
  -10.5280   -1.9050   -1.0240 N   0  0  0  0  0  0  0  0  0  0  0  0
   -9.4550   -1.4720   -1.9190 C   0  0  0  0  0  0  0  0  0  0  0  0
   -9.2820   -2.3940   -3.1270 C   0  0  0  0  0  0  0  0  0  0  0  0
   -7.8170   -2.5500   -3.5360 C   0  0  0  0  0  0  0  0  0  0  0  0
   -6.9720   -3.3210   -2.7550 C   0  0  0  0  0  0  0  0  0  0  0  0
   -5.6390   -3.4770   -3.1110 C   0  0  0  0  0  0  0  0  0  0  0  0
   -5.1940   -2.8390   -4.2640 C   0  0  0  0  0  0  0  0  0  0  0  0
   -6.0850   -2.0780   -5.0070 C   0  0  0  0  0  0  0  0  0  0  0  0
   -7.3470   -1.9600   -4.6270 N   0  0  0  0  0  0  0  0  0  0  0  0
  -12.1450   -0.9640   -2.3390 O   0  0  0  0  0  0  0  0  0  0  0  0
  -18.7610   -1.8760   -2.7390 F   0  0  0  0  0  0  0  0  0  0  0  0
  -18.4550    0.3250   -2.2750 F   0  0  0  0  0  0  0  0  0  0  0  0
  -19.1950   -1.1300   -0.7370 F   0  0  0  0  0  0  0  0  0  0  0  0
   -9.7920   -3.7475   -2.8656 C   0  0  0  0  0  0  0  0  0  0  0  0
  -10.0717   -1.8029   -4.3549 C   0  0  0  0  0  0  0  0  0  0  0  0
  -10.8816   -4.2900   -3.6532 C   0  0  0  0  0  0  0  0  0  0  0  0
  -12.0097   -4.6997   -3.2143 F   0  0  0  0  0  0  0  0  0  0  0  0
  -10.4590   -5.6402   -4.0884 F   0  0  0  0  0  0  0  0  0  0  0  0
  -11.0899   -3.3534   -4.8605 C   0  0  0  0  0  0  0  0  0  0  0  0
  -10.2611   -0.8953   -4.9693 O   0  0  0  0  0  0  0  0  0  0  0  0
  1  2  2  0
  2  3  1  0
  2 16  1  0
  3  4  1  0
  3  6  2  0
  4  5  1  0
  6  7  1  0
  7 15  1  0
  7  8  1  0
 11 12  1  0
 12 28  1  0
 12 27  1  0
 12 26  1  0
 15 16  1  0
 15 25  2  0
 16 17  1  0
 17 18  1  0
 18 19  1  0
 18 29  1  0
 18 30  1  0
 29 31  1  0
 31 32  1  0
 31 33  1  0
 30 34  1  0
 31 34  1  0
 30 35  2  0
  8  9  2  0
  9 10  1  0
 10 11  2  0
 11 13  1  0
 13 14  2  0
 14  8  1  0
 19 20  2  0
 20 21  1  0
 21 22  2  0
 22 23  1  0
 23 24  2  0
 24 19  1  0
M  END

$$$$
No_99-gen_results_new/Mpro_new_generate_500/2024-01-19-21-58-56/
     RDKit          3D

 35 37  0  0  0  0  0  0  0  0999 V2000
   -9.1300   -2.9100    0.4520 O   0  0  0  0  0  0  0  0  0  0  0  0
  -10.2490   -2.6420    0.1800 C   0  0  0  0  0  0  0  0  0  0  0  0
  -11.3800   -3.0650    1.0860 C   0  0  0  0  0  0  0  0  0  0  0  0
  -11.2000   -3.8390    2.3880 C   0  0  0  0  0  0  0  0  0  0  0  0
  -10.9900   -5.0690    2.3420 N   0  0  0  0  0  0  0  0  0  0  0  0
  -12.7310   -2.7290    0.7330 N   0  0  0  0  0  0  0  0  0  0  0  0
  -12.9960   -1.9940   -0.4510 N   0  0  0  0  0  0  0  0  0  0  0  0
  -14.3580   -1.6940   -0.7530 C   0  0  0  0  0  0  0  0  0  0  0  0
  -15.0390   -0.7180   -0.0560 C   0  0  0  0  0  0  0  0  0  0  0  0
  -16.3510   -0.4690   -0.3980 C   0  0  0  0  0  0  0  0  0  0  0  0
  -16.9430   -1.2030   -1.4080 C   0  0  0  0  0  0  0  0  0  0  0  0
  -18.3840   -0.9560   -1.8060 C   0  0  0  0  0  0  0  0  0  0  0  0
  -16.2510   -2.1690   -2.1000 C   0  0  0  0  0  0  0  0  0  0  0  0
  -14.9490   -2.4160   -1.7590 C   0  0  0  0  0  0  0  0  0  0  0  0
  -11.9050   -1.5730   -1.3540 C   0  0  0  0  0  0  0  0  0  0  0  0
  -10.5280   -1.9050   -1.0240 N   0  0  0  0  0  0  0  0  0  0  0  0
   -9.4550   -1.4720   -1.9190 C   0  0  0  0  0  0  0  0  0  0  0  0
   -9.2820   -2.3940   -3.1270 C   0  0  0  0  0  0  0  0  0  0  0  0
   -7.8170   -2.5500   -3.5360 C   0  0  0  0  0  0  0  0  0  0  0  0
   -6.9720   -3.3210   -2.7550 C   0  0  0  0  0  0  0  0  0  0  0  0
   -5.6390   -3.4770   -3.1110 C   0  0  0  0  0  0  0  0  0  0  0  0
   -5.1940   -2.8390   -4.2640 C   0  0  0  0  0  0  0  0  0  0  0  0
   -6.0850   -2.0780   -5.0070 C   0  0  0  0  0  0  0  0  0  0  0  0
   -7.3470   -1.9600   -4.6270 N   0  0  0  0  0  0  0  0  0  0  0  0
  -12.1450   -0.9640   -2.3390 O   0  0  0  0  0  0  0  0  0  0  0  0
  -18.7610   -1.8760   -2.7390 F   0  0  0  0  0  0  0  0  0  0  0  0
  -18.4550    0.3250   -2.2750 F   0  0  0  0  0  0  0  0  0  0  0  0
  -19.1950   -1.1300   -0.7370 F   0  0  0  0  0  0  0  0  0  0  0  0
   -9.7920   -3.7475   -2.8656 C   0  0  0  0  0  0  0  0  0  0  0  0
  -10.0717   -1.8029   -4.3549 C   0  0  0  0  0  0  0  0  0  0  0  0
  -10.0419   -4.6597   -4.1091 C   0  0  0  0  0  0  0  0  0  0  0  0
   -9.7282   -5.9213   -3.9385 O   0  0  0  0  0  0  0  0  0  0  0  0
   -8.5115   -6.2393   -4.4751 C   0  0  0  0  0  0  0  0  0  0  0  0
   -8.2103   -5.9438   -5.4675 O   0  0  0  0  0  0  0  0  0  0  0  0
   -7.6885   -6.8807   -3.6333 N   0  0  0  0  0  0  0  0  0  0  0  0
  1  2  2  0
  2  3  1  0
  2 16  1  0
  3  4  1  0
  3  6  2  0
  4  5  1  0
  6  7  1  0
  7 15  1  0
  7  8  1  0
 11 12  1  0
 12 28  1  0
 12 27  1  0
 12 26  1  0
 15 16  1  0
 15 25  2  0
 16 17  1  0
 17 18  1  0
 18 19  1  0
 18 29  1  0
 18 30  1  0
 29 31  2  3
 31 32  1  0
 32 33  1  0
 33 34  2  0
 33 35  1  0
  8  9  2  0
  9 10  1  0
 10 11  2  0
 11 13  1  0
 13 14  2  0
 14  8  1  0
 19 20  2  0
 20 21  1  0
 21 22  2  0
 22 23  1  0
 23 24  2  0
 24 19  1  0
M  END

$$$$
No_100-gen_results_new/Mpro_new_generate_500/2024-01-19-21-58-56/
     RDKit          3D

 35 37  0  0  0  0  0  0  0  0999 V2000
   -9.1300   -2.9100    0.4520 O   0  0  0  0  0  0  0  0  0  0  0  0
  -10.2490   -2.6420    0.1800 C   0  0  0  0  0  0  0  0  0  0  0  0
  -11.3800   -3.0650    1.0860 C   0  0  0  0  0  0  0  0  0  0  0  0
  -11.2000   -3.8390    2.3880 C   0  0  0  0  0  0  0  0  0  0  0  0
  -10.9900   -5.0690    2.3420 N   0  0  0  0  0  0  0  0  0  0  0  0
  -12.7310   -2.7290    0.7330 N   0  0  0  0  0  0  0  0  0  0  0  0
  -12.9960   -1.9940   -0.4510 N   0  0  0  0  0  0  0  0  0  0  0  0
  -14.3580   -1.6940   -0.7530 C   0  0  0  0  0  0  0  0  0  0  0  0
  -15.0390   -0.7180   -0.0560 C   0  0  0  0  0  0  0  0  0  0  0  0
  -16.3510   -0.4690   -0.3980 C   0  0  0  0  0  0  0  0  0  0  0  0
  -16.9430   -1.2030   -1.4080 C   0  0  0  0  0  0  0  0  0  0  0  0
  -18.3840   -0.9560   -1.8060 C   0  0  0  0  0  0  0  0  0  0  0  0
  -16.2510   -2.1690   -2.1000 C   0  0  0  0  0  0  0  0  0  0  0  0
  -14.9490   -2.4160   -1.7590 C   0  0  0  0  0  0  0  0  0  0  0  0
  -11.9050   -1.5730   -1.3540 C   0  0  0  0  0  0  0  0  0  0  0  0
  -10.5280   -1.9050   -1.0240 N   0  0  0  0  0  0  0  0  0  0  0  0
   -9.4550   -1.4720   -1.9190 C   0  0  0  0  0  0  0  0  0  0  0  0
   -9.2820   -2.3940   -3.1270 C   0  0  0  0  0  0  0  0  0  0  0  0
   -7.8170   -2.5500   -3.5360 C   0  0  0  0  0  0  0  0  0  0  0  0
   -6.9720   -3.3210   -2.7550 C   0  0  0  0  0  0  0  0  0  0  0  0
   -5.6390   -3.4770   -3.1110 C   0  0  0  0  0  0  0  0  0  0  0  0
   -5.1940   -2.8390   -4.2640 C   0  0  0  0  0  0  0  0  0  0  0  0
   -6.0850   -2.0780   -5.0070 C   0  0  0  0  0  0  0  0  0  0  0  0
   -7.3470   -1.9600   -4.6270 N   0  0  0  0  0  0  0  0  0  0  0  0
  -12.1450   -0.9640   -2.3390 O   0  0  0  0  0  0  0  0  0  0  0  0
  -18.7610   -1.8760   -2.7390 F   0  0  0  0  0  0  0  0  0  0  0  0
  -18.4550    0.3250   -2.2750 F   0  0  0  0  0  0  0  0  0  0  0  0
  -19.1950   -1.1300   -0.7370 F   0  0  0  0  0  0  0  0  0  0  0  0
  -10.0453   -2.0069   -4.3181 C   0  0  0  0  0  0  0  0  0  0  0  0
   -9.8476   -3.8948   -2.8015 C   0  0  0  0  0  0  0  0  0  0  0  0
  -10.9871   -4.2370   -3.4678 C   0  0  0  0  0  0  0  0  0  0  0  0
  -12.0609   -5.1160   -3.0647 C   0  0  0  0  0  0  0  0  0  0  0  0
  -12.9281   -5.6907   -3.8562 C   0  0  0  0  0  0  0  0  0  0  0  0
  -12.9487   -5.4376   -5.1106 F   0  0  0  0  0  0  0  0  0  0  0  0
  -14.0348   -6.2911   -3.3820 F   0  0  0  0  0  0  0  0  0  0  0  0
  1  2  2  0
  2  3  1  0
  2 16  1  0
  3  4  1  0
  3  6  2  0
  4  5  1  0
  6  7  1  0
  7 15  1  0
  7  8  1  0
 11 12  1  0
 12 28  1  0
 12 27  1  0
 12 26  1  0
 15 16  1  0
 15 25  2  0
 16 17  1  0
 17 18  1  0
 18 19  1  0
 18 29  1  0
 18 30  1  0
 30 31  1  0
 31 32  1  0
 32 33  2  3
 33 34  1  0
 33 35  1  0
  8  9  2  0
  9 10  1  0
 10 11  2  0
 11 13  1  0
 13 14  2  0
 14  8  1  0
 19 20  2  0
 20 21  1  0
 21 22  2  0
 22 23  1  0
 23 24  2  0
 24 19  1  0
M  END

$$$$
No_101-gen_results_new/Mpro_new_generate_500/2024-01-19-21-58-56/
     RDKit          3D

 33 36  0  0  0  0  0  0  0  0999 V2000
   -9.1300   -2.9100    0.4520 O   0  0  0  0  0  0  0  0  0  0  0  0
  -10.2490   -2.6420    0.1800 C   0  0  0  0  0  0  0  0  0  0  0  0
  -11.3800   -3.0650    1.0860 C   0  0  0  0  0  0  0  0  0  0  0  0
  -11.2000   -3.8390    2.3880 C   0  0  0  0  0  0  0  0  0  0  0  0
  -10.9900   -5.0690    2.3420 N   0  0  0  0  0  0  0  0  0  0  0  0
  -12.7310   -2.7290    0.7330 N   0  0  0  0  0  0  0  0  0  0  0  0
  -12.9960   -1.9940   -0.4510 N   0  0  0  0  0  0  0  0  0  0  0  0
  -14.3580   -1.6940   -0.7530 C   0  0  0  0  0  0  0  0  0  0  0  0
  -15.0390   -0.7180   -0.0560 C   0  0  0  0  0  0  0  0  0  0  0  0
  -16.3510   -0.4690   -0.3980 C   0  0  0  0  0  0  0  0  0  0  0  0
  -16.9430   -1.2030   -1.4080 C   0  0  0  0  0  0  0  0  0  0  0  0
  -18.3840   -0.9560   -1.8060 C   0  0  0  0  0  0  0  0  0  0  0  0
  -16.2510   -2.1690   -2.1000 C   0  0  0  0  0  0  0  0  0  0  0  0
  -14.9490   -2.4160   -1.7590 C   0  0  0  0  0  0  0  0  0  0  0  0
  -11.9050   -1.5730   -1.3540 C   0  0  0  0  0  0  0  0  0  0  0  0
  -10.5280   -1.9050   -1.0240 N   0  0  0  0  0  0  0  0  0  0  0  0
   -9.4550   -1.4720   -1.9190 C   0  0  0  0  0  0  0  0  0  0  0  0
   -9.2820   -2.3940   -3.1270 C   0  0  0  0  0  0  0  0  0  0  0  0
   -7.8170   -2.5500   -3.5360 C   0  0  0  0  0  0  0  0  0  0  0  0
   -6.9720   -3.3210   -2.7550 C   0  0  0  0  0  0  0  0  0  0  0  0
   -5.6390   -3.4770   -3.1110 C   0  0  0  0  0  0  0  0  0  0  0  0
   -5.1940   -2.8390   -4.2640 C   0  0  0  0  0  0  0  0  0  0  0  0
   -6.0850   -2.0780   -5.0070 C   0  0  0  0  0  0  0  0  0  0  0  0
   -7.3470   -1.9600   -4.6270 N   0  0  0  0  0  0  0  0  0  0  0  0
  -12.1450   -0.9640   -2.3390 O   0  0  0  0  0  0  0  0  0  0  0  0
  -18.7610   -1.8760   -2.7390 F   0  0  0  0  0  0  0  0  0  0  0  0
  -18.4550    0.3250   -2.2750 F   0  0  0  0  0  0  0  0  0  0  0  0
  -19.1950   -1.1300   -0.7370 F   0  0  0  0  0  0  0  0  0  0  0  0
   -9.7920   -3.7475   -2.8656 C   0  0  0  0  0  0  0  0  0  0  0  0
  -10.0717   -1.8029   -4.3549 C   0  0  0  0  0  0  0  0  0  0  0  0
  -10.0419   -4.6597   -4.1091 C   0  0  0  0  0  0  0  0  0  0  0  0
  -10.4950   -3.9035   -5.3363 C   0  0  0  0  0  0  0  0  0  0  0  0
  -10.6586   -2.5663   -5.2678 C   0  0  0  0  0  0  0  0  0  0  0  0
  1  2  2  0
  2  3  1  0
  2 16  1  0
  3  4  1  0
  3  6  2  0
  4  5  1  0
  6  7  1  0
  7 15  1  0
  7  8  1  0
 11 12  1  0
 12 28  1  0
 12 27  1  0
 12 26  1  0
 15 16  1  0
 15 25  2  0
 16 17  1  0
 17 18  1  0
 18 19  1  0
 18 29  1  0
 18 30  1  0
 31 32  1  0
 30 33  1  0
 29 31  1  0
 32 33  1  0
  8  9  2  0
  9 10  1  0
 10 11  2  0
 11 13  1  0
 13 14  2  0
 14  8  1  0
 19 20  2  0
 20 21  1  0
 21 22  2  0
 22 23  1  0
 23 24  2  0
 24 19  1  0
M  END

$$$$
No_102-gen_results_new/Mpro_new_generate_500/2024-01-19-21-58-56/
     RDKit          3D

 35 38  0  0  0  0  0  0  0  0999 V2000
   -9.1300   -2.9100    0.4520 O   0  0  0  0  0  0  0  0  0  0  0  0
  -10.2490   -2.6420    0.1800 C   0  0  0  0  0  0  0  0  0  0  0  0
  -11.3800   -3.0650    1.0860 C   0  0  0  0  0  0  0  0  0  0  0  0
  -11.2000   -3.8390    2.3880 C   0  0  0  0  0  0  0  0  0  0  0  0
  -10.9900   -5.0690    2.3420 N   0  0  0  0  0  0  0  0  0  0  0  0
  -12.7310   -2.7290    0.7330 N   0  0  0  0  0  0  0  0  0  0  0  0
  -12.9960   -1.9940   -0.4510 N   0  0  0  0  0  0  0  0  0  0  0  0
  -14.3580   -1.6940   -0.7530 C   0  0  0  0  0  0  0  0  0  0  0  0
  -15.0390   -0.7180   -0.0560 C   0  0  0  0  0  0  0  0  0  0  0  0
  -16.3510   -0.4690   -0.3980 C   0  0  0  0  0  0  0  0  0  0  0  0
  -16.9430   -1.2030   -1.4080 C   0  0  0  0  0  0  0  0  0  0  0  0
  -18.3840   -0.9560   -1.8060 C   0  0  0  0  0  0  0  0  0  0  0  0
  -16.2510   -2.1690   -2.1000 C   0  0  0  0  0  0  0  0  0  0  0  0
  -14.9490   -2.4160   -1.7590 C   0  0  0  0  0  0  0  0  0  0  0  0
  -11.9050   -1.5730   -1.3540 C   0  0  0  0  0  0  0  0  0  0  0  0
  -10.5280   -1.9050   -1.0240 N   0  0  0  0  0  0  0  0  0  0  0  0
   -9.4550   -1.4720   -1.9190 C   0  0  0  0  0  0  0  0  0  0  0  0
   -9.2820   -2.3940   -3.1270 C   0  0  0  0  0  0  0  0  0  0  0  0
   -7.8170   -2.5500   -3.5360 C   0  0  0  0  0  0  0  0  0  0  0  0
   -6.9720   -3.3210   -2.7550 C   0  0  0  0  0  0  0  0  0  0  0  0
   -5.6390   -3.4770   -3.1110 C   0  0  0  0  0  0  0  0  0  0  0  0
   -5.1940   -2.8390   -4.2640 C   0  0  0  0  0  0  0  0  0  0  0  0
   -6.0850   -2.0780   -5.0070 C   0  0  0  0  0  0  0  0  0  0  0  0
   -7.3470   -1.9600   -4.6270 N   0  0  0  0  0  0  0  0  0  0  0  0
  -12.1450   -0.9640   -2.3390 O   0  0  0  0  0  0  0  0  0  0  0  0
  -18.7610   -1.8760   -2.7390 F   0  0  0  0  0  0  0  0  0  0  0  0
  -18.4550    0.3250   -2.2750 F   0  0  0  0  0  0  0  0  0  0  0  0
  -19.1950   -1.1300   -0.7370 F   0  0  0  0  0  0  0  0  0  0  0  0
  -10.0453   -2.0069   -4.3181 C   0  0  0  0  0  0  0  0  0  0  0  0
   -9.8476   -3.8948   -2.8015 C   0  0  0  0  0  0  0  0  0  0  0  0
  -10.1714   -4.7331   -3.9309 C   0  0  0  0  0  0  0  0  0  0  0  0
  -10.2051   -6.2008   -3.5771 C   0  0  0  0  0  0  0  0  0  0  0  0
   -9.7936   -6.4873   -2.2578 C   0  0  0  0  0  0  0  0  0  0  0  0
   -9.8100   -5.7870   -1.2773 C   0  0  0  0  0  0  0  0  0  0  0  0
   -9.4504   -4.3258   -1.5544 C   0  0  0  0  0  0  0  0  0  0  0  0
  1  2  2  0
  2  3  1  0
  2 16  1  0
  3  4  1  0
  3  6  2  0
  4  5  1  0
  6  7  1  0
  7 15  1  0
  7  8  1  0
 11 12  1  0
 12 28  1  0
 12 27  1  0
 12 26  1  0
 15 16  1  0
 15 25  2  0
 16 17  1  0
 17 18  1  0
 18 19  1  0
 18 29  1  0
 18 30  1  0
  8  9  2  0
  9 10  1  0
 10 11  2  0
 11 13  1  0
 13 14  2  0
 14  8  1  0
 30 31  2  0
 31 32  1  0
 32 33  2  0
 33 34  1  0
 34 35  2  0
 35 30  1  0
 19 20  2  0
 20 21  1  0
 21 22  2  0
 22 23  1  0
 23 24  2  0
 24 19  1  0
M  END

$$$$
No_103-gen_results_new/Mpro_new_generate_500/2024-01-19-21-58-56/
     RDKit          3D

 34 37  0  0  0  0  0  0  0  0999 V2000
   -9.1300   -2.9100    0.4520 O   0  0  0  0  0  0  0  0  0  0  0  0
  -10.2490   -2.6420    0.1800 C   0  0  0  0  0  0  0  0  0  0  0  0
  -11.3800   -3.0650    1.0860 C   0  0  0  0  0  0  0  0  0  0  0  0
  -11.2000   -3.8390    2.3880 C   0  0  0  0  0  0  0  0  0  0  0  0
  -10.9900   -5.0690    2.3420 N   0  0  0  0  0  0  0  0  0  0  0  0
  -12.7310   -2.7290    0.7330 N   0  0  0  0  0  0  0  0  0  0  0  0
  -12.9960   -1.9940   -0.4510 N   0  0  0  0  0  0  0  0  0  0  0  0
  -14.3580   -1.6940   -0.7530 C   0  0  0  0  0  0  0  0  0  0  0  0
  -15.0390   -0.7180   -0.0560 C   0  0  0  0  0  0  0  0  0  0  0  0
  -16.3510   -0.4690   -0.3980 C   0  0  0  0  0  0  0  0  0  0  0  0
  -16.9430   -1.2030   -1.4080 C   0  0  0  0  0  0  0  0  0  0  0  0
  -18.3840   -0.9560   -1.8060 C   0  0  0  0  0  0  0  0  0  0  0  0
  -16.2510   -2.1690   -2.1000 C   0  0  0  0  0  0  0  0  0  0  0  0
  -14.9490   -2.4160   -1.7590 C   0  0  0  0  0  0  0  0  0  0  0  0
  -11.9050   -1.5730   -1.3540 C   0  0  0  0  0  0  0  0  0  0  0  0
  -10.5280   -1.9050   -1.0240 N   0  0  0  0  0  0  0  0  0  0  0  0
   -9.4550   -1.4720   -1.9190 C   0  0  0  0  0  0  0  0  0  0  0  0
   -9.2820   -2.3940   -3.1270 C   0  0  0  0  0  0  0  0  0  0  0  0
   -7.8170   -2.5500   -3.5360 C   0  0  0  0  0  0  0  0  0  0  0  0
   -6.9720   -3.3210   -2.7550 C   0  0  0  0  0  0  0  0  0  0  0  0
   -5.6390   -3.4770   -3.1110 C   0  0  0  0  0  0  0  0  0  0  0  0
   -5.1940   -2.8390   -4.2640 C   0  0  0  0  0  0  0  0  0  0  0  0
   -6.0850   -2.0780   -5.0070 C   0  0  0  0  0  0  0  0  0  0  0  0
   -7.3470   -1.9600   -4.6270 N   0  0  0  0  0  0  0  0  0  0  0  0
  -12.1450   -0.9640   -2.3390 O   0  0  0  0  0  0  0  0  0  0  0  0
  -18.7610   -1.8760   -2.7390 F   0  0  0  0  0  0  0  0  0  0  0  0
  -18.4550    0.3250   -2.2750 F   0  0  0  0  0  0  0  0  0  0  0  0
  -19.1950   -1.1300   -0.7370 F   0  0  0  0  0  0  0  0  0  0  0  0
   -9.7920   -3.7475   -2.8656 C   0  0  0  0  0  0  0  0  0  0  0  0
  -10.0717   -1.8029   -4.3549 C   0  0  0  0  0  0  0  0  0  0  0  0
  -10.8816   -4.2900   -3.6532 C   0  0  0  0  0  0  0  0  0  0  0  0
  -11.3133   -3.1342   -4.5955 C   0  0  0  0  0  0  0  0  0  0  0  0
   -9.9823   -0.8282   -4.9781 O   0  0  0  0  0  0  0  0  0  0  0  0
  -10.5831   -5.3522   -4.6882 C   0  0  0  0  0  0  0  0  0  0  0  0
  1  2  2  0
  2  3  1  0
  2 16  1  0
  3  4  1  0
  3  6  2  0
  4  5  1  0
  6  7  1  0
  7 15  1  0
  7  8  1  0
 11 12  1  0
 12 28  1  0
 12 27  1  0
 12 26  1  0
 15 16  1  0
 15 25  2  0
 16 17  1  0
 17 18  1  0
 18 19  1  0
 18 29  1  0
 18 30  1  0
 29 31  2  0
 30 32  1  0
 31 32  1  0
 30 33  2  0
 31 34  1  0
  8  9  2  0
  9 10  1  0
 10 11  2  0
 11 13  1  0
 13 14  2  0
 14  8  1  0
 19 20  2  0
 20 21  1  0
 21 22  2  0
 22 23  1  0
 23 24  2  0
 24 19  1  0
M  END

$$$$
No_104-gen_results_new/Mpro_new_generate_500/2024-01-19-21-58-56/
     RDKit          3D

 35 37  0  0  0  0  0  0  0  0999 V2000
   -9.1300   -2.9100    0.4520 O   0  0  0  0  0  0  0  0  0  0  0  0
  -10.2490   -2.6420    0.1800 C   0  0  0  0  0  0  0  0  0  0  0  0
  -11.3800   -3.0650    1.0860 C   0  0  0  0  0  0  0  0  0  0  0  0
  -11.2000   -3.8390    2.3880 C   0  0  0  0  0  0  0  0  0  0  0  0
  -10.9900   -5.0690    2.3420 N   0  0  0  0  0  0  0  0  0  0  0  0
  -12.7310   -2.7290    0.7330 N   0  0  0  0  0  0  0  0  0  0  0  0
  -12.9960   -1.9940   -0.4510 N   0  0  0  0  0  0  0  0  0  0  0  0
  -14.3580   -1.6940   -0.7530 C   0  0  0  0  0  0  0  0  0  0  0  0
  -15.0390   -0.7180   -0.0560 C   0  0  0  0  0  0  0  0  0  0  0  0
  -16.3510   -0.4690   -0.3980 C   0  0  0  0  0  0  0  0  0  0  0  0
  -16.9430   -1.2030   -1.4080 C   0  0  0  0  0  0  0  0  0  0  0  0
  -18.3840   -0.9560   -1.8060 C   0  0  0  0  0  0  0  0  0  0  0  0
  -16.2510   -2.1690   -2.1000 C   0  0  0  0  0  0  0  0  0  0  0  0
  -14.9490   -2.4160   -1.7590 C   0  0  0  0  0  0  0  0  0  0  0  0
  -11.9050   -1.5730   -1.3540 C   0  0  0  0  0  0  0  0  0  0  0  0
  -10.5280   -1.9050   -1.0240 N   0  0  0  0  0  0  0  0  0  0  0  0
   -9.4550   -1.4720   -1.9190 C   0  0  0  0  0  0  0  0  0  0  0  0
   -9.2820   -2.3940   -3.1270 C   0  0  0  0  0  0  0  0  0  0  0  0
   -7.8170   -2.5500   -3.5360 C   0  0  0  0  0  0  0  0  0  0  0  0
   -6.9720   -3.3210   -2.7550 C   0  0  0  0  0  0  0  0  0  0  0  0
   -5.6390   -3.4770   -3.1110 C   0  0  0  0  0  0  0  0  0  0  0  0
   -5.1940   -2.8390   -4.2640 C   0  0  0  0  0  0  0  0  0  0  0  0
   -6.0850   -2.0780   -5.0070 C   0  0  0  0  0  0  0  0  0  0  0  0
   -7.3470   -1.9600   -4.6270 N   0  0  0  0  0  0  0  0  0  0  0  0
  -12.1450   -0.9640   -2.3390 O   0  0  0  0  0  0  0  0  0  0  0  0
  -18.7610   -1.8760   -2.7390 F   0  0  0  0  0  0  0  0  0  0  0  0
  -18.4550    0.3250   -2.2750 F   0  0  0  0  0  0  0  0  0  0  0  0
  -19.1950   -1.1300   -0.7370 F   0  0  0  0  0  0  0  0  0  0  0  0
  -10.0453   -2.0069   -4.3181 C   0  0  0  0  0  0  0  0  0  0  0  0
   -9.8476   -3.8948   -2.8015 C   0  0  0  0  0  0  0  0  0  0  0  0
  -10.1714   -4.7331   -3.9309 C   0  0  0  0  0  0  0  0  0  0  0  0
  -11.1563   -4.7495   -4.4336 O   0  0  0  0  0  0  0  0  0  0  0  0
   -9.2743   -5.6827   -4.2239 O   0  0  0  0  0  0  0  0  0  0  0  0
   -8.7229   -6.6204   -3.4374 C   0  0  0  0  0  0  0  0  0  0  0  0
   -7.6368   -7.3748   -4.1815 C   0  0  0  0  0  0  0  0  0  0  0  0
  1  2  2  0
  2  3  1  0
  2 16  1  0
  3  4  1  0
  3  6  2  0
  4  5  1  0
  6  7  1  0
  7 15  1  0
  7  8  1  0
 11 12  1  0
 12 28  1  0
 12 27  1  0
 12 26  1  0
 15 16  1  0
 15 25  2  0
 16 17  1  0
 17 18  1  0
 18 19  1  0
 18 29  1  0
 18 30  1  0
 30 31  1  0
 31 32  2  0
 31 33  1  0
 33 34  1  0
 34 35  1  0
  8  9  2  0
  9 10  1  0
 10 11  2  0
 11 13  1  0
 13 14  2  0
 14  8  1  0
 19 20  2  0
 20 21  1  0
 21 22  2  0
 22 23  1  0
 23 24  2  0
 24 19  1  0
M  END

$$$$
No_105-gen_results_new/Mpro_new_generate_500/2024-01-19-21-58-56/
     RDKit          3D

 35 37  0  0  0  0  0  0  0  0999 V2000
   -9.1300   -2.9100    0.4520 O   0  0  0  0  0  0  0  0  0  0  0  0
  -10.2490   -2.6420    0.1800 C   0  0  0  0  0  0  0  0  0  0  0  0
  -11.3800   -3.0650    1.0860 C   0  0  0  0  0  0  0  0  0  0  0  0
  -11.2000   -3.8390    2.3880 C   0  0  0  0  0  0  0  0  0  0  0  0
  -10.9900   -5.0690    2.3420 N   0  0  0  0  0  0  0  0  0  0  0  0
  -12.7310   -2.7290    0.7330 N   0  0  0  0  0  0  0  0  0  0  0  0
  -12.9960   -1.9940   -0.4510 N   0  0  0  0  0  0  0  0  0  0  0  0
  -14.3580   -1.6940   -0.7530 C   0  0  0  0  0  0  0  0  0  0  0  0
  -15.0390   -0.7180   -0.0560 C   0  0  0  0  0  0  0  0  0  0  0  0
  -16.3510   -0.4690   -0.3980 C   0  0  0  0  0  0  0  0  0  0  0  0
  -16.9430   -1.2030   -1.4080 C   0  0  0  0  0  0  0  0  0  0  0  0
  -18.3840   -0.9560   -1.8060 C   0  0  0  0  0  0  0  0  0  0  0  0
  -16.2510   -2.1690   -2.1000 C   0  0  0  0  0  0  0  0  0  0  0  0
  -14.9490   -2.4160   -1.7590 C   0  0  0  0  0  0  0  0  0  0  0  0
  -11.9050   -1.5730   -1.3540 C   0  0  0  0  0  0  0  0  0  0  0  0
  -10.5280   -1.9050   -1.0240 N   0  0  0  0  0  0  0  0  0  0  0  0
   -9.4550   -1.4720   -1.9190 C   0  0  0  0  0  0  0  0  0  0  0  0
   -9.2820   -2.3940   -3.1270 C   0  0  0  0  0  0  0  0  0  0  0  0
   -7.8170   -2.5500   -3.5360 C   0  0  0  0  0  0  0  0  0  0  0  0
   -6.9720   -3.3210   -2.7550 C   0  0  0  0  0  0  0  0  0  0  0  0
   -5.6390   -3.4770   -3.1110 C   0  0  0  0  0  0  0  0  0  0  0  0
   -5.1940   -2.8390   -4.2640 C   0  0  0  0  0  0  0  0  0  0  0  0
   -6.0850   -2.0780   -5.0070 C   0  0  0  0  0  0  0  0  0  0  0  0
   -7.3470   -1.9600   -4.6270 N   0  0  0  0  0  0  0  0  0  0  0  0
  -12.1450   -0.9640   -2.3390 O   0  0  0  0  0  0  0  0  0  0  0  0
  -18.7610   -1.8760   -2.7390 F   0  0  0  0  0  0  0  0  0  0  0  0
  -18.4550    0.3250   -2.2750 F   0  0  0  0  0  0  0  0  0  0  0  0
  -19.1950   -1.1300   -0.7370 F   0  0  0  0  0  0  0  0  0  0  0  0
  -10.0453   -2.0069   -4.3181 C   0  0  0  0  0  0  0  0  0  0  0  0
   -9.8476   -3.8948   -2.8015 C   0  0  0  0  0  0  0  0  0  0  0  0
   -9.3106   -4.5161   -1.8185 O   0  0  0  0  0  0  0  0  0  0  0  0
  -10.7107   -4.6933   -3.6532 C   0  0  0  0  0  0  0  0  0  0  0  0
  -10.2847   -5.1763   -4.7716 C   0  0  0  0  0  0  0  0  0  0  0  0
   -9.2618   -5.7800   -4.8837 O   0  0  0  0  0  0  0  0  0  0  0  0
   -9.0668   -6.5656   -6.0867 C   0  0  0  0  0  0  0  0  0  0  0  0
  1  2  2  0
  2  3  1  0
  2 16  1  0
  3  4  1  0
  3  6  2  0
  4  5  1  0
  6  7  1  0
  7 15  1  0
  7  8  1  0
 11 12  1  0
 12 28  1  0
 12 27  1  0
 12 26  1  0
 15 16  1  0
 15 25  2  0
 16 17  1  0
 17 18  1  0
 18 19  1  0
 18 29  1  0
 18 30  1  0
 30 31  2  0
 30 32  1  0
 32 33  1  0
 33 34  1  0
 34 35  1  0
  8  9  2  0
  9 10  1  0
 10 11  2  0
 11 13  1  0
 13 14  2  0
 14  8  1  0
 19 20  2  0
 20 21  1  0
 21 22  2  0
 22 23  1  0
 23 24  2  0
 24 19  1  0
M  END

$$$$
No_106-gen_results_new/Mpro_new_generate_500/2024-01-19-21-58-56/
     RDKit          3D

 35 37  0  0  0  0  0  0  0  0999 V2000
   -9.1300   -2.9100    0.4520 O   0  0  0  0  0  0  0  0  0  0  0  0
  -10.2490   -2.6420    0.1800 C   0  0  0  0  0  0  0  0  0  0  0  0
  -11.3800   -3.0650    1.0860 C   0  0  0  0  0  0  0  0  0  0  0  0
  -11.2000   -3.8390    2.3880 C   0  0  0  0  0  0  0  0  0  0  0  0
  -10.9900   -5.0690    2.3420 N   0  0  0  0  0  0  0  0  0  0  0  0
  -12.7310   -2.7290    0.7330 N   0  0  0  0  0  0  0  0  0  0  0  0
  -12.9960   -1.9940   -0.4510 N   0  0  0  0  0  0  0  0  0  0  0  0
  -14.3580   -1.6940   -0.7530 C   0  0  0  0  0  0  0  0  0  0  0  0
  -15.0390   -0.7180   -0.0560 C   0  0  0  0  0  0  0  0  0  0  0  0
  -16.3510   -0.4690   -0.3980 C   0  0  0  0  0  0  0  0  0  0  0  0
  -16.9430   -1.2030   -1.4080 C   0  0  0  0  0  0  0  0  0  0  0  0
  -18.3840   -0.9560   -1.8060 C   0  0  0  0  0  0  0  0  0  0  0  0
  -16.2510   -2.1690   -2.1000 C   0  0  0  0  0  0  0  0  0  0  0  0
  -14.9490   -2.4160   -1.7590 C   0  0  0  0  0  0  0  0  0  0  0  0
  -11.9050   -1.5730   -1.3540 C   0  0  0  0  0  0  0  0  0  0  0  0
  -10.5280   -1.9050   -1.0240 N   0  0  0  0  0  0  0  0  0  0  0  0
   -9.4550   -1.4720   -1.9190 C   0  0  0  0  0  0  0  0  0  0  0  0
   -9.2820   -2.3940   -3.1270 C   0  0  0  0  0  0  0  0  0  0  0  0
   -7.8170   -2.5500   -3.5360 C   0  0  0  0  0  0  0  0  0  0  0  0
   -6.9720   -3.3210   -2.7550 C   0  0  0  0  0  0  0  0  0  0  0  0
   -5.6390   -3.4770   -3.1110 C   0  0  0  0  0  0  0  0  0  0  0  0
   -5.1940   -2.8390   -4.2640 C   0  0  0  0  0  0  0  0  0  0  0  0
   -6.0850   -2.0780   -5.0070 C   0  0  0  0  0  0  0  0  0  0  0  0
   -7.3470   -1.9600   -4.6270 N   0  0  0  0  0  0  0  0  0  0  0  0
  -12.1450   -0.9640   -2.3390 O   0  0  0  0  0  0  0  0  0  0  0  0
  -18.7610   -1.8760   -2.7390 F   0  0  0  0  0  0  0  0  0  0  0  0
  -18.4550    0.3250   -2.2750 F   0  0  0  0  0  0  0  0  0  0  0  0
  -19.1950   -1.1300   -0.7370 F   0  0  0  0  0  0  0  0  0  0  0  0
   -9.7920   -3.7475   -2.8656 C   0  0  0  0  0  0  0  0  0  0  0  0
  -10.0268   -1.9037   -4.2201 F   0  0  0  0  0  0  0  0  0  0  0  0
   -9.7674   -4.7763   -4.0487 C   0  0  0  0  0  0  0  0  0  0  0  0
   -9.8640   -5.8326   -3.7182 O   0  0  0  0  0  0  0  0  0  0  0  0
   -8.7036   -6.4910   -3.6405 C   0  0  0  0  0  0  0  0  0  0  0  0
   -8.3863   -7.4009   -2.6564 N   0  0  0  0  0  0  0  0  0  0  0  0
   -7.8513   -6.4792   -4.4908 O   0  0  0  0  0  0  0  0  0  0  0  0
  1  2  2  0
  2  3  1  0
  2 16  1  0
  3  4  1  0
  3  6  2  0
  4  5  1  0
  6  7  1  0
  7 15  1  0
  7  8  1  0
 11 12  1  0
 12 28  1  0
 12 27  1  0
 12 26  1  0
 15 16  1  0
 15 25  2  0
 16 17  1  0
 17 18  1  0
 18 19  1  0
 18 29  1  0
 18 30  1  0
 29 31  1  0
 31 32  1  0
 32 33  1  0
 33 34  1  0
 33 35  2  0
  8  9  2  0
  9 10  1  0
 10 11  2  0
 11 13  1  0
 13 14  2  0
 14  8  1  0
 19 20  2  0
 20 21  1  0
 21 22  2  0
 22 23  1  0
 23 24  2  0
 24 19  1  0
M  END

$$$$
No_107-gen_results_new/Mpro_new_generate_500/2024-01-19-21-58-56/
     RDKit          3D

 35 37  0  0  0  0  0  0  0  0999 V2000
   -9.1300   -2.9100    0.4520 O   0  0  0  0  0  0  0  0  0  0  0  0
  -10.2490   -2.6420    0.1800 C   0  0  0  0  0  0  0  0  0  0  0  0
  -11.3800   -3.0650    1.0860 C   0  0  0  0  0  0  0  0  0  0  0  0
  -11.2000   -3.8390    2.3880 C   0  0  0  0  0  0  0  0  0  0  0  0
  -10.9900   -5.0690    2.3420 N   0  0  0  0  0  0  0  0  0  0  0  0
  -12.7310   -2.7290    0.7330 N   0  0  0  0  0  0  0  0  0  0  0  0
  -12.9960   -1.9940   -0.4510 N   0  0  0  0  0  0  0  0  0  0  0  0
  -14.3580   -1.6940   -0.7530 C   0  0  0  0  0  0  0  0  0  0  0  0
  -15.0390   -0.7180   -0.0560 C   0  0  0  0  0  0  0  0  0  0  0  0
  -16.3510   -0.4690   -0.3980 C   0  0  0  0  0  0  0  0  0  0  0  0
  -16.9430   -1.2030   -1.4080 C   0  0  0  0  0  0  0  0  0  0  0  0
  -18.3840   -0.9560   -1.8060 C   0  0  0  0  0  0  0  0  0  0  0  0
  -16.2510   -2.1690   -2.1000 C   0  0  0  0  0  0  0  0  0  0  0  0
  -14.9490   -2.4160   -1.7590 C   0  0  0  0  0  0  0  0  0  0  0  0
  -11.9050   -1.5730   -1.3540 C   0  0  0  0  0  0  0  0  0  0  0  0
  -10.5280   -1.9050   -1.0240 N   0  0  0  0  0  0  0  0  0  0  0  0
   -9.4550   -1.4720   -1.9190 C   0  0  0  0  0  0  0  0  0  0  0  0
   -9.2820   -2.3940   -3.1270 C   0  0  0  0  0  0  0  0  0  0  0  0
   -7.8170   -2.5500   -3.5360 C   0  0  0  0  0  0  0  0  0  0  0  0
   -6.9720   -3.3210   -2.7550 C   0  0  0  0  0  0  0  0  0  0  0  0
   -5.6390   -3.4770   -3.1110 C   0  0  0  0  0  0  0  0  0  0  0  0
   -5.1940   -2.8390   -4.2640 C   0  0  0  0  0  0  0  0  0  0  0  0
   -6.0850   -2.0780   -5.0070 C   0  0  0  0  0  0  0  0  0  0  0  0
   -7.3470   -1.9600   -4.6270 N   0  0  0  0  0  0  0  0  0  0  0  0
  -12.1450   -0.9640   -2.3390 O   0  0  0  0  0  0  0  0  0  0  0  0
  -18.7610   -1.8760   -2.7390 F   0  0  0  0  0  0  0  0  0  0  0  0
  -18.4550    0.3250   -2.2750 F   0  0  0  0  0  0  0  0  0  0  0  0
  -19.1950   -1.1300   -0.7370 F   0  0  0  0  0  0  0  0  0  0  0  0
  -10.0453   -2.0069   -4.3181 C   0  0  0  0  0  0  0  0  0  0  0  0
   -9.8476   -3.8948   -2.8015 C   0  0  0  0  0  0  0  0  0  0  0  0
  -10.1714   -4.7331   -3.9309 C   0  0  0  0  0  0  0  0  0  0  0  0
  -11.3050   -4.6807   -4.5887 C   0  0  0  0  0  0  0  0  0  0  0  0
  -11.4572   -5.5176   -5.8557 C   0  0  0  0  0  0  0  0  0  0  0  0
  -11.2090   -4.9218   -7.0938 C   0  0  0  0  0  0  0  0  0  0  0  0
  -10.0011   -4.6918   -7.3904 N   0  0  0  0  0  0  0  0  0  0  0  0
  1  2  2  0
  2  3  1  0
  2 16  1  0
  3  4  1  0
  3  6  2  0
  4  5  1  0
  6  7  1  0
  7 15  1  0
  7  8  1  0
 11 12  1  0
 12 28  1  0
 12 27  1  0
 12 26  1  0
 15 16  1  0
 15 25  2  0
 16 17  1  0
 17 18  1  0
 18 19  1  0
 18 29  1  0
 18 30  1  0
 30 31  1  0
 31 32  1  0
 32 33  1  0
 33 34  1  0
 34 35  1  0
  8  9  2  0
  9 10  1  0
 10 11  2  0
 11 13  1  0
 13 14  2  0
 14  8  1  0
 19 20  2  0
 20 21  1  0
 21 22  2  0
 22 23  1  0
 23 24  2  0
 24 19  1  0
M  END

$$$$
No_108-gen_results_new/Mpro_new_generate_500/2024-01-19-21-58-56/
     RDKit          3D

 33 35  0  0  0  0  0  0  0  0999 V2000
   -9.1300   -2.9100    0.4520 O   0  0  0  0  0  0  0  0  0  0  0  0
  -10.2490   -2.6420    0.1800 C   0  0  0  0  0  0  0  0  0  0  0  0
  -11.3800   -3.0650    1.0860 C   0  0  0  0  0  0  0  0  0  0  0  0
  -11.2000   -3.8390    2.3880 C   0  0  0  0  0  0  0  0  0  0  0  0
  -10.9900   -5.0690    2.3420 N   0  0  0  0  0  0  0  0  0  0  0  0
  -12.7310   -2.7290    0.7330 N   0  0  0  0  0  0  0  0  0  0  0  0
  -12.9960   -1.9940   -0.4510 N   0  0  0  0  0  0  0  0  0  0  0  0
  -14.3580   -1.6940   -0.7530 C   0  0  0  0  0  0  0  0  0  0  0  0
  -15.0390   -0.7180   -0.0560 C   0  0  0  0  0  0  0  0  0  0  0  0
  -16.3510   -0.4690   -0.3980 C   0  0  0  0  0  0  0  0  0  0  0  0
  -16.9430   -1.2030   -1.4080 C   0  0  0  0  0  0  0  0  0  0  0  0
  -18.3840   -0.9560   -1.8060 C   0  0  0  0  0  0  0  0  0  0  0  0
  -16.2510   -2.1690   -2.1000 C   0  0  0  0  0  0  0  0  0  0  0  0
  -14.9490   -2.4160   -1.7590 C   0  0  0  0  0  0  0  0  0  0  0  0
  -11.9050   -1.5730   -1.3540 C   0  0  0  0  0  0  0  0  0  0  0  0
  -10.5280   -1.9050   -1.0240 N   0  0  0  0  0  0  0  0  0  0  0  0
   -9.4550   -1.4720   -1.9190 C   0  0  0  0  0  0  0  0  0  0  0  0
   -9.2820   -2.3940   -3.1270 C   0  0  0  0  0  0  0  0  0  0  0  0
   -7.8170   -2.5500   -3.5360 C   0  0  0  0  0  0  0  0  0  0  0  0
   -6.9720   -3.3210   -2.7550 C   0  0  0  0  0  0  0  0  0  0  0  0
   -5.6390   -3.4770   -3.1110 C   0  0  0  0  0  0  0  0  0  0  0  0
   -5.1940   -2.8390   -4.2640 C   0  0  0  0  0  0  0  0  0  0  0  0
   -6.0850   -2.0780   -5.0070 C   0  0  0  0  0  0  0  0  0  0  0  0
   -7.3470   -1.9600   -4.6270 N   0  0  0  0  0  0  0  0  0  0  0  0
  -12.1450   -0.9640   -2.3390 O   0  0  0  0  0  0  0  0  0  0  0  0
  -18.7610   -1.8760   -2.7390 F   0  0  0  0  0  0  0  0  0  0  0  0
  -18.4550    0.3250   -2.2750 F   0  0  0  0  0  0  0  0  0  0  0  0
  -19.1950   -1.1300   -0.7370 F   0  0  0  0  0  0  0  0  0  0  0  0
  -10.0453   -2.0069   -4.3181 C   0  0  0  0  0  0  0  0  0  0  0  0
   -9.8476   -3.8948   -2.8015 C   0  0  0  0  0  0  0  0  0  0  0  0
  -10.1714   -4.7331   -3.9309 C   0  0  0  0  0  0  0  0  0  0  0  0
  -10.1186   -5.9859   -3.4612 F   0  0  0  0  0  0  0  0  0  0  0  0
   -9.7228   -4.6016   -5.1143 C   0  0  0  0  0  0  0  0  0  0  0  0
  1  2  2  0
  2  3  1  0
  2 16  1  0
  3  4  1  0
  3  6  2  0
  4  5  1  0
  6  7  1  0
  7 15  1  0
  7  8  1  0
 11 12  1  0
 12 28  1  0
 12 27  1  0
 12 26  1  0
 15 16  1  0
 15 25  2  0
 16 17  1  0
 17 18  1  0
 18 19  1  0
 18 29  1  0
 18 30  1  0
 30 31  2  3
 31 32  1  0
 31 33  1  0
  8  9  2  0
  9 10  1  0
 10 11  2  0
 11 13  1  0
 13 14  2  0
 14  8  1  0
 19 20  2  0
 20 21  1  0
 21 22  2  0
 22 23  1  0
 23 24  2  0
 24 19  1  0
M  END

$$$$
No_109-gen_results_new/Mpro_new_generate_500/2024-01-19-21-58-56/
     RDKit          3D

 32 34  0  0  0  0  0  0  0  0999 V2000
   -9.1300   -2.9100    0.4520 O   0  0  0  0  0  0  0  0  0  0  0  0
  -10.2490   -2.6420    0.1800 C   0  0  0  0  0  0  0  0  0  0  0  0
  -11.3800   -3.0650    1.0860 C   0  0  0  0  0  0  0  0  0  0  0  0
  -11.2000   -3.8390    2.3880 C   0  0  0  0  0  0  0  0  0  0  0  0
  -10.9900   -5.0690    2.3420 N   0  0  0  0  0  0  0  0  0  0  0  0
  -12.7310   -2.7290    0.7330 N   0  0  0  0  0  0  0  0  0  0  0  0
  -12.9960   -1.9940   -0.4510 N   0  0  0  0  0  0  0  0  0  0  0  0
  -14.3580   -1.6940   -0.7530 C   0  0  0  0  0  0  0  0  0  0  0  0
  -15.0390   -0.7180   -0.0560 C   0  0  0  0  0  0  0  0  0  0  0  0
  -16.3510   -0.4690   -0.3980 C   0  0  0  0  0  0  0  0  0  0  0  0
  -16.9430   -1.2030   -1.4080 C   0  0  0  0  0  0  0  0  0  0  0  0
  -18.3840   -0.9560   -1.8060 C   0  0  0  0  0  0  0  0  0  0  0  0
  -16.2510   -2.1690   -2.1000 C   0  0  0  0  0  0  0  0  0  0  0  0
  -14.9490   -2.4160   -1.7590 C   0  0  0  0  0  0  0  0  0  0  0  0
  -11.9050   -1.5730   -1.3540 C   0  0  0  0  0  0  0  0  0  0  0  0
  -10.5280   -1.9050   -1.0240 N   0  0  0  0  0  0  0  0  0  0  0  0
   -9.4550   -1.4720   -1.9190 C   0  0  0  0  0  0  0  0  0  0  0  0
   -9.2820   -2.3940   -3.1270 C   0  0  0  0  0  0  0  0  0  0  0  0
   -7.8170   -2.5500   -3.5360 C   0  0  0  0  0  0  0  0  0  0  0  0
   -6.9720   -3.3210   -2.7550 C   0  0  0  0  0  0  0  0  0  0  0  0
   -5.6390   -3.4770   -3.1110 C   0  0  0  0  0  0  0  0  0  0  0  0
   -5.1940   -2.8390   -4.2640 C   0  0  0  0  0  0  0  0  0  0  0  0
   -6.0850   -2.0780   -5.0070 C   0  0  0  0  0  0  0  0  0  0  0  0
   -7.3470   -1.9600   -4.6270 N   0  0  0  0  0  0  0  0  0  0  0  0
  -12.1450   -0.9640   -2.3390 O   0  0  0  0  0  0  0  0  0  0  0  0
  -18.7610   -1.8760   -2.7390 F   0  0  0  0  0  0  0  0  0  0  0  0
  -18.4550    0.3250   -2.2750 F   0  0  0  0  0  0  0  0  0  0  0  0
  -19.1950   -1.1300   -0.7370 F   0  0  0  0  0  0  0  0  0  0  0  0
  -10.1467   -3.0903   -3.8357 C   0  0  0  0  0  0  0  0  0  0  0  0
  -10.1681   -2.5855   -3.6007 C   0  0  0  0  0  0  0  0  0  0  0  0
  -10.5499   -1.5777   -4.9257 C   0  0  0  0  0  0  0  0  0  0  0  0
  -10.9397   -3.4837   -3.7658 C   0  0  0  0  0  0  0  0  0  0  0  0
  1  2  2  0
  2  3  1  0
  2 16  1  0
  3  4  1  0
  3  6  2  0
  4  5  1  0
  6  7  1  0
  7 15  1  0
  7  8  1  0
 11 12  1  0
 12 28  1  0
 12 27  1  0
 12 26  1  0
 15 16  1  0
 15 25  2  0
 16 17  1  0
 17 18  1  0
 18 19  1  0
 18 29  1  0
 29 30  2  3
 30 31  1  0
 29 32  1  0
  8  9  2  0
  9 10  1  0
 10 11  2  0
 11 13  1  0
 13 14  2  0
 14  8  1  0
 19 20  2  0
 20 21  1  0
 21 22  2  0
 22 23  1  0
 23 24  2  0
 24 19  1  0
M  END

$$$$
No_110-gen_results_new/Mpro_new_generate_500/2024-01-19-21-58-56/
     RDKit          3D

 35 38  0  0  0  0  0  0  0  0999 V2000
   -9.1300   -2.9100    0.4520 O   0  0  0  0  0  0  0  0  0  0  0  0
  -10.2490   -2.6420    0.1800 C   0  0  0  0  0  0  0  0  0  0  0  0
  -11.3800   -3.0650    1.0860 C   0  0  0  0  0  0  0  0  0  0  0  0
  -11.2000   -3.8390    2.3880 C   0  0  0  0  0  0  0  0  0  0  0  0
  -10.9900   -5.0690    2.3420 N   0  0  0  0  0  0  0  0  0  0  0  0
  -12.7310   -2.7290    0.7330 N   0  0  0  0  0  0  0  0  0  0  0  0
  -12.9960   -1.9940   -0.4510 N   0  0  0  0  0  0  0  0  0  0  0  0
  -14.3580   -1.6940   -0.7530 C   0  0  0  0  0  0  0  0  0  0  0  0
  -15.0390   -0.7180   -0.0560 C   0  0  0  0  0  0  0  0  0  0  0  0
  -16.3510   -0.4690   -0.3980 C   0  0  0  0  0  0  0  0  0  0  0  0
  -16.9430   -1.2030   -1.4080 C   0  0  0  0  0  0  0  0  0  0  0  0
  -18.3840   -0.9560   -1.8060 C   0  0  0  0  0  0  0  0  0  0  0  0
  -16.2510   -2.1690   -2.1000 C   0  0  0  0  0  0  0  0  0  0  0  0
  -14.9490   -2.4160   -1.7590 C   0  0  0  0  0  0  0  0  0  0  0  0
  -11.9050   -1.5730   -1.3540 C   0  0  0  0  0  0  0  0  0  0  0  0
  -10.5280   -1.9050   -1.0240 N   0  0  0  0  0  0  0  0  0  0  0  0
   -9.4550   -1.4720   -1.9190 C   0  0  0  0  0  0  0  0  0  0  0  0
   -9.2820   -2.3940   -3.1270 C   0  0  0  0  0  0  0  0  0  0  0  0
   -7.8170   -2.5500   -3.5360 C   0  0  0  0  0  0  0  0  0  0  0  0
   -6.9720   -3.3210   -2.7550 C   0  0  0  0  0  0  0  0  0  0  0  0
   -5.6390   -3.4770   -3.1110 C   0  0  0  0  0  0  0  0  0  0  0  0
   -5.1940   -2.8390   -4.2640 C   0  0  0  0  0  0  0  0  0  0  0  0
   -6.0850   -2.0780   -5.0070 C   0  0  0  0  0  0  0  0  0  0  0  0
   -7.3470   -1.9600   -4.6270 N   0  0  0  0  0  0  0  0  0  0  0  0
  -12.1450   -0.9640   -2.3390 O   0  0  0  0  0  0  0  0  0  0  0  0
  -18.7610   -1.8760   -2.7390 F   0  0  0  0  0  0  0  0  0  0  0  0
  -18.4550    0.3250   -2.2750 F   0  0  0  0  0  0  0  0  0  0  0  0
  -19.1950   -1.1300   -0.7370 F   0  0  0  0  0  0  0  0  0  0  0  0
  -10.0453   -2.0069   -4.3181 C   0  0  0  0  0  0  0  0  0  0  0  0
   -9.8903   -3.8143   -2.9484 C   0  0  0  0  0  0  0  0  0  0  0  0
  -10.2391   -4.6422   -4.0501 C   0  0  0  0  0  0  0  0  0  0  0  0
  -11.0818   -5.8085   -3.8959 O   0  0  0  0  0  0  0  0  0  0  0  0
  -12.3383   -5.3902   -4.0890 C   0  0  0  0  0  0  0  0  0  0  0  0
  -12.1065   -4.2133   -5.0097 C   0  0  0  0  0  0  0  0  0  0  0  0
  -10.7848   -3.9542   -4.9947 C   0  0  0  0  0  0  0  0  0  0  0  0
  1  2  2  0
  2  3  1  0
  2 16  1  0
  3  4  1  0
  3  6  2  0
  4  5  1  0
  6  7  1  0
  7 15  1  0
  7  8  1  0
 11 12  1  0
 12 28  1  0
 12 27  1  0
 12 26  1  0
 15 16  1  0
 15 25  2  0
 16 17  1  0
 17 18  1  0
 18 19  1  0
 18 29  1  0
 18 30  1  0
 30 31  2  3
 31 32  1  0
 32 33  1  0
 33 34  1  0
 31 35  1  0
 34 35  2  0
  8  9  2  0
  9 10  1  0
 10 11  2  0
 11 13  1  0
 13 14  2  0
 14  8  1  0
 19 20  2  0
 20 21  1  0
 21 22  2  0
 22 23  1  0
 23 24  2  0
 24 19  1  0
M  END

$$$$
No_111-gen_results_new/Mpro_new_generate_500/2024-01-19-21-58-56/
     RDKit          3D

 35 37  0  0  0  0  0  0  0  0999 V2000
   -9.1300   -2.9100    0.4520 O   0  0  0  0  0  0  0  0  0  0  0  0
  -10.2490   -2.6420    0.1800 C   0  0  0  0  0  0  0  0  0  0  0  0
  -11.3800   -3.0650    1.0860 C   0  0  0  0  0  0  0  0  0  0  0  0
  -11.2000   -3.8390    2.3880 C   0  0  0  0  0  0  0  0  0  0  0  0
  -10.9900   -5.0690    2.3420 N   0  0  0  0  0  0  0  0  0  0  0  0
  -12.7310   -2.7290    0.7330 N   0  0  0  0  0  0  0  0  0  0  0  0
  -12.9960   -1.9940   -0.4510 N   0  0  0  0  0  0  0  0  0  0  0  0
  -14.3580   -1.6940   -0.7530 C   0  0  0  0  0  0  0  0  0  0  0  0
  -15.0390   -0.7180   -0.0560 C   0  0  0  0  0  0  0  0  0  0  0  0
  -16.3510   -0.4690   -0.3980 C   0  0  0  0  0  0  0  0  0  0  0  0
  -16.9430   -1.2030   -1.4080 C   0  0  0  0  0  0  0  0  0  0  0  0
  -18.3840   -0.9560   -1.8060 C   0  0  0  0  0  0  0  0  0  0  0  0
  -16.2510   -2.1690   -2.1000 C   0  0  0  0  0  0  0  0  0  0  0  0
  -14.9490   -2.4160   -1.7590 C   0  0  0  0  0  0  0  0  0  0  0  0
  -11.9050   -1.5730   -1.3540 C   0  0  0  0  0  0  0  0  0  0  0  0
  -10.5280   -1.9050   -1.0240 N   0  0  0  0  0  0  0  0  0  0  0  0
   -9.4550   -1.4720   -1.9190 C   0  0  0  0  0  0  0  0  0  0  0  0
   -9.2820   -2.3940   -3.1270 C   0  0  0  0  0  0  0  0  0  0  0  0
   -7.8170   -2.5500   -3.5360 C   0  0  0  0  0  0  0  0  0  0  0  0
   -6.9720   -3.3210   -2.7550 C   0  0  0  0  0  0  0  0  0  0  0  0
   -5.6390   -3.4770   -3.1110 C   0  0  0  0  0  0  0  0  0  0  0  0
   -5.1940   -2.8390   -4.2640 C   0  0  0  0  0  0  0  0  0  0  0  0
   -6.0850   -2.0780   -5.0070 C   0  0  0  0  0  0  0  0  0  0  0  0
   -7.3470   -1.9600   -4.6270 N   0  0  0  0  0  0  0  0  0  0  0  0
  -12.1450   -0.9640   -2.3390 O   0  0  0  0  0  0  0  0  0  0  0  0
  -18.7610   -1.8760   -2.7390 F   0  0  0  0  0  0  0  0  0  0  0  0
  -18.4550    0.3250   -2.2750 F   0  0  0  0  0  0  0  0  0  0  0  0
  -19.1950   -1.1300   -0.7370 F   0  0  0  0  0  0  0  0  0  0  0  0
  -10.0453   -2.0069   -4.3181 C   0  0  0  0  0  0  0  0  0  0  0  0
   -9.8476   -3.8948   -2.8015 C   0  0  0  0  0  0  0  0  0  0  0  0
  -10.9871   -4.2370   -3.4678 C   0  0  0  0  0  0  0  0  0  0  0  0
  -10.8610   -5.1456   -3.8848 F   0  0  0  0  0  0  0  0  0  0  0  0
  -12.2897   -3.6231   -3.4446 C   0  0  0  0  0  0  0  0  0  0  0  0
   -9.1163   -4.8273   -2.4840 O   0  0  0  0  0  0  0  0  0  0  0  0
   -8.6399   -5.9305   -2.9379 C   0  0  0  0  0  0  0  0  0  0  0  0
  1  2  2  0
  2  3  1  0
  2 16  1  0
  3  4  1  0
  3  6  2  0
  4  5  1  0
  6  7  1  0
  7 15  1  0
  7  8  1  0
 11 12  1  0
 12 28  1  0
 12 27  1  0
 12 26  1  0
 15 16  1  0
 15 25  2  0
 16 17  1  0
 17 18  1  0
 18 19  1  0
 18 29  1  0
 18 30  1  0
 30 31  1  0
 31 32  1  0
 31 33  1  0
 30 34  1  0
 34 35  1  0
  8  9  2  0
  9 10  1  0
 10 11  2  0
 11 13  1  0
 13 14  2  0
 14  8  1  0
 19 20  2  0
 20 21  1  0
 21 22  2  0
 22 23  1  0
 23 24  2  0
 24 19  1  0
M  END

$$$$
No_112-gen_results_new/Mpro_new_generate_500/2024-01-19-21-58-56/
     RDKit          3D

 33 35  0  0  0  0  0  0  0  0999 V2000
   -9.1300   -2.9100    0.4520 O   0  0  0  0  0  0  0  0  0  0  0  0
  -10.2490   -2.6420    0.1800 C   0  0  0  0  0  0  0  0  0  0  0  0
  -11.3800   -3.0650    1.0860 C   0  0  0  0  0  0  0  0  0  0  0  0
  -11.2000   -3.8390    2.3880 C   0  0  0  0  0  0  0  0  0  0  0  0
  -10.9900   -5.0690    2.3420 N   0  0  0  0  0  0  0  0  0  0  0  0
  -12.7310   -2.7290    0.7330 N   0  0  0  0  0  0  0  0  0  0  0  0
  -12.9960   -1.9940   -0.4510 N   0  0  0  0  0  0  0  0  0  0  0  0
  -14.3580   -1.6940   -0.7530 C   0  0  0  0  0  0  0  0  0  0  0  0
  -15.0390   -0.7180   -0.0560 C   0  0  0  0  0  0  0  0  0  0  0  0
  -16.3510   -0.4690   -0.3980 C   0  0  0  0  0  0  0  0  0  0  0  0
  -16.9430   -1.2030   -1.4080 C   0  0  0  0  0  0  0  0  0  0  0  0
  -18.3840   -0.9560   -1.8060 C   0  0  0  0  0  0  0  0  0  0  0  0
  -16.2510   -2.1690   -2.1000 C   0  0  0  0  0  0  0  0  0  0  0  0
  -14.9490   -2.4160   -1.7590 C   0  0  0  0  0  0  0  0  0  0  0  0
  -11.9050   -1.5730   -1.3540 C   0  0  0  0  0  0  0  0  0  0  0  0
  -10.5280   -1.9050   -1.0240 N   0  0  0  0  0  0  0  0  0  0  0  0
   -9.4550   -1.4720   -1.9190 C   0  0  0  0  0  0  0  0  0  0  0  0
   -9.2820   -2.3940   -3.1270 C   0  0  0  0  0  0  0  0  0  0  0  0
   -7.8170   -2.5500   -3.5360 C   0  0  0  0  0  0  0  0  0  0  0  0
   -6.9720   -3.3210   -2.7550 C   0  0  0  0  0  0  0  0  0  0  0  0
   -5.6390   -3.4770   -3.1110 C   0  0  0  0  0  0  0  0  0  0  0  0
   -5.1940   -2.8390   -4.2640 C   0  0  0  0  0  0  0  0  0  0  0  0
   -6.0850   -2.0780   -5.0070 C   0  0  0  0  0  0  0  0  0  0  0  0
   -7.3470   -1.9600   -4.6270 N   0  0  0  0  0  0  0  0  0  0  0  0
  -12.1450   -0.9640   -2.3390 O   0  0  0  0  0  0  0  0  0  0  0  0
  -18.7610   -1.8760   -2.7390 F   0  0  0  0  0  0  0  0  0  0  0  0
  -18.4550    0.3250   -2.2750 F   0  0  0  0  0  0  0  0  0  0  0  0
  -19.1950   -1.1300   -0.7370 F   0  0  0  0  0  0  0  0  0  0  0  0
  -10.3357   -3.2037   -4.0333 S   0  0  0  0  0  0  0  0  0  0  0  0
  -10.8637   -2.3157   -5.0262 O   0  0  0  0  0  0  0  0  0  0  0  0
  -10.5062   -4.5415   -3.9943 O   0  0  0  0  0  0  0  0  0  0  0  0
   -9.2747   -2.4412   -2.1223 C   0  0  0  0  0  0  0  0  0  0  0  0
   -8.1039   -2.7403   -1.3050 C   0  0  0  0  0  0  0  0  0  0  0  0
  1  2  2  0
  2  3  1  0
  2 16  1  0
  3  4  1  0
  3  6  2  0
  4  5  1  0
  6  7  1  0
  7 15  1  0
  7  8  1  0
 11 12  1  0
 12 28  1  0
 12 27  1  0
 12 26  1  0
 15 16  1  0
 15 25  2  0
 16 17  1  0
 17 18  1  0
 18 19  1  0
 18 29  1  0
 29 30  2  0
 29 31  2  0
 18 32  1  0
 32 33  1  0
  8  9  2  0
  9 10  1  0
 10 11  2  0
 11 13  1  0
 13 14  2  0
 14  8  1  0
 19 20  2  0
 20 21  1  0
 21 22  2  0
 22 23  1  0
 23 24  2  0
 24 19  1  0
M  END

$$$$
No_113-gen_results_new/Mpro_new_generate_500/2024-01-19-21-58-56/
     RDKit          3D

 32 34  0  0  0  0  0  0  0  0999 V2000
   -9.1300   -2.9100    0.4520 O   0  0  0  0  0  0  0  0  0  0  0  0
  -10.2490   -2.6420    0.1800 C   0  0  0  0  0  0  0  0  0  0  0  0
  -11.3800   -3.0650    1.0860 C   0  0  0  0  0  0  0  0  0  0  0  0
  -11.2000   -3.8390    2.3880 C   0  0  0  0  0  0  0  0  0  0  0  0
  -10.9900   -5.0690    2.3420 N   0  0  0  0  0  0  0  0  0  0  0  0
  -12.7310   -2.7290    0.7330 N   0  0  0  0  0  0  0  0  0  0  0  0
  -12.9960   -1.9940   -0.4510 N   0  0  0  0  0  0  0  0  0  0  0  0
  -14.3580   -1.6940   -0.7530 C   0  0  0  0  0  0  0  0  0  0  0  0
  -15.0390   -0.7180   -0.0560 C   0  0  0  0  0  0  0  0  0  0  0  0
  -16.3510   -0.4690   -0.3980 C   0  0  0  0  0  0  0  0  0  0  0  0
  -16.9430   -1.2030   -1.4080 C   0  0  0  0  0  0  0  0  0  0  0  0
  -18.3840   -0.9560   -1.8060 C   0  0  0  0  0  0  0  0  0  0  0  0
  -16.2510   -2.1690   -2.1000 C   0  0  0  0  0  0  0  0  0  0  0  0
  -14.9490   -2.4160   -1.7590 C   0  0  0  0  0  0  0  0  0  0  0  0
  -11.9050   -1.5730   -1.3540 C   0  0  0  0  0  0  0  0  0  0  0  0
  -10.5280   -1.9050   -1.0240 N   0  0  0  0  0  0  0  0  0  0  0  0
   -9.4550   -1.4720   -1.9190 C   0  0  0  0  0  0  0  0  0  0  0  0
   -9.2820   -2.3940   -3.1270 C   0  0  0  0  0  0  0  0  0  0  0  0
   -7.8170   -2.5500   -3.5360 C   0  0  0  0  0  0  0  0  0  0  0  0
   -6.9720   -3.3210   -2.7550 C   0  0  0  0  0  0  0  0  0  0  0  0
   -5.6390   -3.4770   -3.1110 C   0  0  0  0  0  0  0  0  0  0  0  0
   -5.1940   -2.8390   -4.2640 C   0  0  0  0  0  0  0  0  0  0  0  0
   -6.0850   -2.0780   -5.0070 C   0  0  0  0  0  0  0  0  0  0  0  0
   -7.3470   -1.9600   -4.6270 N   0  0  0  0  0  0  0  0  0  0  0  0
  -12.1450   -0.9640   -2.3390 O   0  0  0  0  0  0  0  0  0  0  0  0
  -18.7610   -1.8760   -2.7390 F   0  0  0  0  0  0  0  0  0  0  0  0
  -18.4550    0.3250   -2.2750 F   0  0  0  0  0  0  0  0  0  0  0  0
  -19.1950   -1.1300   -0.7370 F   0  0  0  0  0  0  0  0  0  0  0  0
  -10.1467   -3.0903   -3.8357 C   0  0  0  0  0  0  0  0  0  0  0  0
  -10.3179   -2.6325   -3.8272 S   0  0  0  0  0  0  0  0  0  0  0  0
  -10.3995   -1.8172   -5.2345 O   0  0  0  0  0  0  0  0  0  0  0  0
  -11.9488   -2.7216   -3.5095 O   0  0  0  0  0  0  0  0  0  0  0  0
  1  2  2  0
  2  3  1  0
  2 16  1  0
  3  4  1  0
  3  6  2  0
  4  5  1  0
  6  7  1  0
  7 15  1  0
  7  8  1  0
 11 12  1  0
 12 28  1  0
 12 27  1  0
 12 26  1  0
 15 16  1  0
 15 25  2  0
 16 17  1  0
 17 18  1  0
 18 19  1  0
 18 29  1  0
 29 30  1  0
 30 31  2  0
 30 32  2  0
  8  9  2  0
  9 10  1  0
 10 11  2  0
 11 13  1  0
 13 14  2  0
 14  8  1  0
 19 20  2  0
 20 21  1  0
 21 22  2  0
 22 23  1  0
 23 24  2  0
 24 19  1  0
M  END

$$$$
No_114-gen_results_new/Mpro_new_generate_500/2024-01-19-21-58-56/
     RDKit          3D

 33 35  0  0  0  0  0  0  0  0999 V2000
   -9.1300   -2.9100    0.4520 O   0  0  0  0  0  0  0  0  0  0  0  0
  -10.2490   -2.6420    0.1800 C   0  0  0  0  0  0  0  0  0  0  0  0
  -11.3800   -3.0650    1.0860 C   0  0  0  0  0  0  0  0  0  0  0  0
  -11.2000   -3.8390    2.3880 C   0  0  0  0  0  0  0  0  0  0  0  0
  -10.9900   -5.0690    2.3420 N   0  0  0  0  0  0  0  0  0  0  0  0
  -12.7310   -2.7290    0.7330 N   0  0  0  0  0  0  0  0  0  0  0  0
  -12.9960   -1.9940   -0.4510 N   0  0  0  0  0  0  0  0  0  0  0  0
  -14.3580   -1.6940   -0.7530 C   0  0  0  0  0  0  0  0  0  0  0  0
  -15.0390   -0.7180   -0.0560 C   0  0  0  0  0  0  0  0  0  0  0  0
  -16.3510   -0.4690   -0.3980 C   0  0  0  0  0  0  0  0  0  0  0  0
  -16.9430   -1.2030   -1.4080 C   0  0  0  0  0  0  0  0  0  0  0  0
  -18.3840   -0.9560   -1.8060 C   0  0  0  0  0  0  0  0  0  0  0  0
  -16.2510   -2.1690   -2.1000 C   0  0  0  0  0  0  0  0  0  0  0  0
  -14.9490   -2.4160   -1.7590 C   0  0  0  0  0  0  0  0  0  0  0  0
  -11.9050   -1.5730   -1.3540 C   0  0  0  0  0  0  0  0  0  0  0  0
  -10.5280   -1.9050   -1.0240 N   0  0  0  0  0  0  0  0  0  0  0  0
   -9.4550   -1.4720   -1.9190 C   0  0  0  0  0  0  0  0  0  0  0  0
   -9.2820   -2.3940   -3.1270 C   0  0  0  0  0  0  0  0  0  0  0  0
   -7.8170   -2.5500   -3.5360 C   0  0  0  0  0  0  0  0  0  0  0  0
   -6.9720   -3.3210   -2.7550 C   0  0  0  0  0  0  0  0  0  0  0  0
   -5.6390   -3.4770   -3.1110 C   0  0  0  0  0  0  0  0  0  0  0  0
   -5.1940   -2.8390   -4.2640 C   0  0  0  0  0  0  0  0  0  0  0  0
   -6.0850   -2.0780   -5.0070 C   0  0  0  0  0  0  0  0  0  0  0  0
   -7.3470   -1.9600   -4.6270 N   0  0  0  0  0  0  0  0  0  0  0  0
  -12.1450   -0.9640   -2.3390 O   0  0  0  0  0  0  0  0  0  0  0  0
  -18.7610   -1.8760   -2.7390 F   0  0  0  0  0  0  0  0  0  0  0  0
  -18.4550    0.3250   -2.2750 F   0  0  0  0  0  0  0  0  0  0  0  0
  -19.1950   -1.1300   -0.7370 F   0  0  0  0  0  0  0  0  0  0  0  0
  -10.1467   -3.0903   -3.8357 C   0  0  0  0  0  0  0  0  0  0  0  0
  -10.1748   -2.6832   -3.5186 O   0  0  0  0  0  0  0  0  0  0  0  0
  -10.7471   -2.9983   -4.5745 C   0  0  0  0  0  0  0  0  0  0  0  0
  -10.5504   -3.6142   -3.7226 C   0  0  0  0  0  0  0  0  0  0  0  0
  -11.6785   -4.3858   -3.6783 F   0  0  0  0  0  0  0  0  0  0  0  0
  1  2  2  0
  2  3  1  0
  2 16  1  0
  3  4  1  0
  3  6  2  0
  4  5  1  0
  6  7  1  0
  7 15  1  0
  7  8  1  0
 11 12  1  0
 12 28  1  0
 12 27  1  0
 12 26  1  0
 15 16  1  0
 15 25  2  0
 16 17  1  0
 17 18  1  0
 18 19  1  0
 18 29  1  0
 29 30  1  0
 29 31  1  0
 30 32  1  0
 32 33  1  0
  8  9  2  0
  9 10  1  0
 10 11  2  0
 11 13  1  0
 13 14  2  0
 14  8  1  0
 19 20  2  0
 20 21  1  0
 21 22  2  0
 22 23  1  0
 23 24  2  0
 24 19  1  0
M  END

$$$$
No_115-gen_results_new/Mpro_new_generate_500/2024-01-19-21-58-56/
     RDKit          3D

 33 35  0  0  0  0  0  0  0  0999 V2000
   -9.1300   -2.9100    0.4520 O   0  0  0  0  0  0  0  0  0  0  0  0
  -10.2490   -2.6420    0.1800 C   0  0  0  0  0  0  0  0  0  0  0  0
  -11.3800   -3.0650    1.0860 C   0  0  0  0  0  0  0  0  0  0  0  0
  -11.2000   -3.8390    2.3880 C   0  0  0  0  0  0  0  0  0  0  0  0
  -10.9900   -5.0690    2.3420 N   0  0  0  0  0  0  0  0  0  0  0  0
  -12.7310   -2.7290    0.7330 N   0  0  0  0  0  0  0  0  0  0  0  0
  -12.9960   -1.9940   -0.4510 N   0  0  0  0  0  0  0  0  0  0  0  0
  -14.3580   -1.6940   -0.7530 C   0  0  0  0  0  0  0  0  0  0  0  0
  -15.0390   -0.7180   -0.0560 C   0  0  0  0  0  0  0  0  0  0  0  0
  -16.3510   -0.4690   -0.3980 C   0  0  0  0  0  0  0  0  0  0  0  0
  -16.9430   -1.2030   -1.4080 C   0  0  0  0  0  0  0  0  0  0  0  0
  -18.3840   -0.9560   -1.8060 C   0  0  0  0  0  0  0  0  0  0  0  0
  -16.2510   -2.1690   -2.1000 C   0  0  0  0  0  0  0  0  0  0  0  0
  -14.9490   -2.4160   -1.7590 C   0  0  0  0  0  0  0  0  0  0  0  0
  -11.9050   -1.5730   -1.3540 C   0  0  0  0  0  0  0  0  0  0  0  0
  -10.5280   -1.9050   -1.0240 N   0  0  0  0  0  0  0  0  0  0  0  0
   -9.4550   -1.4720   -1.9190 C   0  0  0  0  0  0  0  0  0  0  0  0
   -9.2820   -2.3940   -3.1270 C   0  0  0  0  0  0  0  0  0  0  0  0
   -7.8170   -2.5500   -3.5360 C   0  0  0  0  0  0  0  0  0  0  0  0
   -6.9720   -3.3210   -2.7550 C   0  0  0  0  0  0  0  0  0  0  0  0
   -5.6390   -3.4770   -3.1110 C   0  0  0  0  0  0  0  0  0  0  0  0
   -5.1940   -2.8390   -4.2640 C   0  0  0  0  0  0  0  0  0  0  0  0
   -6.0850   -2.0780   -5.0070 C   0  0  0  0  0  0  0  0  0  0  0  0
   -7.3470   -1.9600   -4.6270 N   0  0  0  0  0  0  0  0  0  0  0  0
  -12.1450   -0.9640   -2.3390 O   0  0  0  0  0  0  0  0  0  0  0  0
  -18.7610   -1.8760   -2.7390 F   0  0  0  0  0  0  0  0  0  0  0  0
  -18.4550    0.3250   -2.2750 F   0  0  0  0  0  0  0  0  0  0  0  0
  -19.1950   -1.1300   -0.7370 F   0  0  0  0  0  0  0  0  0  0  0  0
   -9.7920   -3.7475   -2.8656 C   0  0  0  0  0  0  0  0  0  0  0  0
  -10.2108   -1.7522   -4.5716 S   0  0  0  0  0  0  0  0  0  0  0  0
  -11.2851   -3.0960   -5.0458 C   0  0  0  0  0  0  0  0  0  0  0  0
  -10.8721   -0.5490   -4.1367 O   0  0  0  0  0  0  0  0  0  0  0  0
   -9.6083   -1.0486   -5.9339 C   0  0  0  0  0  0  0  0  0  0  0  0
  1  2  2  0
  2  3  1  0
  2 16  1  0
  3  4  1  0
  3  6  2  0
  4  5  1  0
  6  7  1  0
  7 15  1  0
  7  8  1  0
 11 12  1  0
 12 28  1  0
 12 27  1  0
 12 26  1  0
 15 16  1  0
 15 25  2  0
 16 17  1  0
 17 18  1  0
 18 19  1  0
 18 29  1  0
 18 30  1  0
 30 31  1  0
 30 32  2  0
 30 33  1  0
  8  9  2  0
  9 10  1  0
 10 11  2  0
 11 13  1  0
 13 14  2  0
 14  8  1  0
 19 20  2  0
 20 21  1  0
 21 22  2  0
 22 23  1  0
 23 24  2  0
 24 19  1  0
M  END

$$$$
No_116-gen_results_new/Mpro_new_generate_500/2024-01-19-21-58-56/
     RDKit          3D

 35 37  0  0  0  0  0  0  0  0999 V2000
   -9.1300   -2.9100    0.4520 O   0  0  0  0  0  0  0  0  0  0  0  0
  -10.2490   -2.6420    0.1800 C   0  0  0  0  0  0  0  0  0  0  0  0
  -11.3800   -3.0650    1.0860 C   0  0  0  0  0  0  0  0  0  0  0  0
  -11.2000   -3.8390    2.3880 C   0  0  0  0  0  0  0  0  0  0  0  0
  -10.9900   -5.0690    2.3420 N   0  0  0  0  0  0  0  0  0  0  0  0
  -12.7310   -2.7290    0.7330 N   0  0  0  0  0  0  0  0  0  0  0  0
  -12.9960   -1.9940   -0.4510 N   0  0  0  0  0  0  0  0  0  0  0  0
  -14.3580   -1.6940   -0.7530 C   0  0  0  0  0  0  0  0  0  0  0  0
  -15.0390   -0.7180   -0.0560 C   0  0  0  0  0  0  0  0  0  0  0  0
  -16.3510   -0.4690   -0.3980 C   0  0  0  0  0  0  0  0  0  0  0  0
  -16.9430   -1.2030   -1.4080 C   0  0  0  0  0  0  0  0  0  0  0  0
  -18.3840   -0.9560   -1.8060 C   0  0  0  0  0  0  0  0  0  0  0  0
  -16.2510   -2.1690   -2.1000 C   0  0  0  0  0  0  0  0  0  0  0  0
  -14.9490   -2.4160   -1.7590 C   0  0  0  0  0  0  0  0  0  0  0  0
  -11.9050   -1.5730   -1.3540 C   0  0  0  0  0  0  0  0  0  0  0  0
  -10.5280   -1.9050   -1.0240 N   0  0  0  0  0  0  0  0  0  0  0  0
   -9.4550   -1.4720   -1.9190 C   0  0  0  0  0  0  0  0  0  0  0  0
   -9.2820   -2.3940   -3.1270 C   0  0  0  0  0  0  0  0  0  0  0  0
   -7.8170   -2.5500   -3.5360 C   0  0  0  0  0  0  0  0  0  0  0  0
   -6.9720   -3.3210   -2.7550 C   0  0  0  0  0  0  0  0  0  0  0  0
   -5.6390   -3.4770   -3.1110 C   0  0  0  0  0  0  0  0  0  0  0  0
   -5.1940   -2.8390   -4.2640 C   0  0  0  0  0  0  0  0  0  0  0  0
   -6.0850   -2.0780   -5.0070 C   0  0  0  0  0  0  0  0  0  0  0  0
   -7.3470   -1.9600   -4.6270 N   0  0  0  0  0  0  0  0  0  0  0  0
  -12.1450   -0.9640   -2.3390 O   0  0  0  0  0  0  0  0  0  0  0  0
  -18.7610   -1.8760   -2.7390 F   0  0  0  0  0  0  0  0  0  0  0  0
  -18.4550    0.3250   -2.2750 F   0  0  0  0  0  0  0  0  0  0  0  0
  -19.1950   -1.1300   -0.7370 F   0  0  0  0  0  0  0  0  0  0  0  0
   -9.7920   -3.7475   -2.8656 C   0  0  0  0  0  0  0  0  0  0  0  0
  -10.0268   -1.9037   -4.2201 F   0  0  0  0  0  0  0  0  0  0  0  0
  -11.2246   -3.6026   -3.0255 F   0  0  0  0  0  0  0  0  0  0  0  0
   -9.4920   -4.5317   -1.6730 C   0  0  0  0  0  0  0  0  0  0  0  0
   -9.5742   -4.7546   -4.1289 C   0  0  0  0  0  0  0  0  0  0  0  0
  -10.4220   -4.7946   -0.7151 C   0  0  0  0  0  0  0  0  0  0  0  0
   -9.7171   -5.5325    0.4622 C   0  0  0  0  0  0  0  0  0  0  0  0
  1  2  2  0
  2  3  1  0
  2 16  1  0
  3  4  1  0
  3  6  2  0
  4  5  1  0
  6  7  1  0
  7 15  1  0
  7  8  1  0
 11 12  1  0
 12 28  1  0
 12 27  1  0
 12 26  1  0
 15 16  1  0
 15 25  2  0
 16 17  1  0
 17 18  1  0
 18 19  1  0
 18 29  1  0
 18 30  1  0
 29 31  1  0
 29 32  1  0
 29 33  1  0
 32 34  2  3
 34 35  1  0
  8  9  2  0
  9 10  1  0
 10 11  2  0
 11 13  1  0
 13 14  2  0
 14  8  1  0
 19 20  2  0
 20 21  1  0
 21 22  2  0
 22 23  1  0
 23 24  2  0
 24 19  1  0
M  END

$$$$
No_117-gen_results_new/Mpro_new_generate_500/2024-01-19-21-58-56/
     RDKit          3D

 33 35  0  0  0  0  0  0  0  0999 V2000
   -9.1300   -2.9100    0.4520 O   0  0  0  0  0  0  0  0  0  0  0  0
  -10.2490   -2.6420    0.1800 C   0  0  0  0  0  0  0  0  0  0  0  0
  -11.3800   -3.0650    1.0860 C   0  0  0  0  0  0  0  0  0  0  0  0
  -11.2000   -3.8390    2.3880 C   0  0  0  0  0  0  0  0  0  0  0  0
  -10.9900   -5.0690    2.3420 N   0  0  0  0  0  0  0  0  0  0  0  0
  -12.7310   -2.7290    0.7330 N   0  0  0  0  0  0  0  0  0  0  0  0
  -12.9960   -1.9940   -0.4510 N   0  0  0  0  0  0  0  0  0  0  0  0
  -14.3580   -1.6940   -0.7530 C   0  0  0  0  0  0  0  0  0  0  0  0
  -15.0390   -0.7180   -0.0560 C   0  0  0  0  0  0  0  0  0  0  0  0
  -16.3510   -0.4690   -0.3980 C   0  0  0  0  0  0  0  0  0  0  0  0
  -16.9430   -1.2030   -1.4080 C   0  0  0  0  0  0  0  0  0  0  0  0
  -18.3840   -0.9560   -1.8060 C   0  0  0  0  0  0  0  0  0  0  0  0
  -16.2510   -2.1690   -2.1000 C   0  0  0  0  0  0  0  0  0  0  0  0
  -14.9490   -2.4160   -1.7590 C   0  0  0  0  0  0  0  0  0  0  0  0
  -11.9050   -1.5730   -1.3540 C   0  0  0  0  0  0  0  0  0  0  0  0
  -10.5280   -1.9050   -1.0240 N   0  0  0  0  0  0  0  0  0  0  0  0
   -9.4550   -1.4720   -1.9190 C   0  0  0  0  0  0  0  0  0  0  0  0
   -9.2820   -2.3940   -3.1270 C   0  0  0  0  0  0  0  0  0  0  0  0
   -7.8170   -2.5500   -3.5360 C   0  0  0  0  0  0  0  0  0  0  0  0
   -6.9720   -3.3210   -2.7550 C   0  0  0  0  0  0  0  0  0  0  0  0
   -5.6390   -3.4770   -3.1110 C   0  0  0  0  0  0  0  0  0  0  0  0
   -5.1940   -2.8390   -4.2640 C   0  0  0  0  0  0  0  0  0  0  0  0
   -6.0850   -2.0780   -5.0070 C   0  0  0  0  0  0  0  0  0  0  0  0
   -7.3470   -1.9600   -4.6270 N   0  0  0  0  0  0  0  0  0  0  0  0
  -12.1450   -0.9640   -2.3390 O   0  0  0  0  0  0  0  0  0  0  0  0
  -18.7610   -1.8760   -2.7390 F   0  0  0  0  0  0  0  0  0  0  0  0
  -18.4550    0.3250   -2.2750 F   0  0  0  0  0  0  0  0  0  0  0  0
  -19.1950   -1.1300   -0.7370 F   0  0  0  0  0  0  0  0  0  0  0  0
  -10.1467   -3.0903   -3.8357 C   0  0  0  0  0  0  0  0  0  0  0  0
  -10.1681   -2.5855   -3.6007 C   0  0  0  0  0  0  0  0  0  0  0  0
  -10.4499   -1.5957   -4.9129 C   0  0  0  0  0  0  0  0  0  0  0  0
  -11.4523   -3.2456   -3.4461 C   0  0  0  0  0  0  0  0  0  0  0  0
  -10.6465   -1.8623   -2.7453 F   0  0  0  0  0  0  0  0  0  0  0  0
  1  2  2  0
  2  3  1  0
  2 16  1  0
  3  4  1  0
  3  6  2  0
  4  5  1  0
  6  7  1  0
  7 15  1  0
  7  8  1  0
 11 12  1  0
 12 28  1  0
 12 27  1  0
 12 26  1  0
 15 16  1  0
 15 25  2  0
 16 17  1  0
 17 18  1  0
 18 19  1  0
 18 29  1  0
 29 30  1  0
 30 31  1  0
 29 32  1  0
 32 33  1  0
  8  9  2  0
  9 10  1  0
 10 11  2  0
 11 13  1  0
 13 14  2  0
 14  8  1  0
 19 20  2  0
 20 21  1  0
 21 22  2  0
 22 23  1  0
 23 24  2  0
 24 19  1  0
M  END

$$$$
No_118-gen_results_new/Mpro_new_generate_500/2024-01-19-21-58-56/
     RDKit          3D

 35 38  0  0  0  0  0  0  0  0999 V2000
   -9.1300   -2.9100    0.4520 O   0  0  0  0  0  0  0  0  0  0  0  0
  -10.2490   -2.6420    0.1800 C   0  0  0  0  0  0  0  0  0  0  0  0
  -11.3800   -3.0650    1.0860 C   0  0  0  0  0  0  0  0  0  0  0  0
  -11.2000   -3.8390    2.3880 C   0  0  0  0  0  0  0  0  0  0  0  0
  -10.9900   -5.0690    2.3420 N   0  0  0  0  0  0  0  0  0  0  0  0
  -12.7310   -2.7290    0.7330 N   0  0  0  0  0  0  0  0  0  0  0  0
  -12.9960   -1.9940   -0.4510 N   0  0  0  0  0  0  0  0  0  0  0  0
  -14.3580   -1.6940   -0.7530 C   0  0  0  0  0  0  0  0  0  0  0  0
  -15.0390   -0.7180   -0.0560 C   0  0  0  0  0  0  0  0  0  0  0  0
  -16.3510   -0.4690   -0.3980 C   0  0  0  0  0  0  0  0  0  0  0  0
  -16.9430   -1.2030   -1.4080 C   0  0  0  0  0  0  0  0  0  0  0  0
  -18.3840   -0.9560   -1.8060 C   0  0  0  0  0  0  0  0  0  0  0  0
  -16.2510   -2.1690   -2.1000 C   0  0  0  0  0  0  0  0  0  0  0  0
  -14.9490   -2.4160   -1.7590 C   0  0  0  0  0  0  0  0  0  0  0  0
  -11.9050   -1.5730   -1.3540 C   0  0  0  0  0  0  0  0  0  0  0  0
  -10.5280   -1.9050   -1.0240 N   0  0  0  0  0  0  0  0  0  0  0  0
   -9.4550   -1.4720   -1.9190 C   0  0  0  0  0  0  0  0  0  0  0  0
   -9.2820   -2.3940   -3.1270 C   0  0  0  0  0  0  0  0  0  0  0  0
   -7.8170   -2.5500   -3.5360 C   0  0  0  0  0  0  0  0  0  0  0  0
   -6.9720   -3.3210   -2.7550 C   0  0  0  0  0  0  0  0  0  0  0  0
   -5.6390   -3.4770   -3.1110 C   0  0  0  0  0  0  0  0  0  0  0  0
   -5.1940   -2.8390   -4.2640 C   0  0  0  0  0  0  0  0  0  0  0  0
   -6.0850   -2.0780   -5.0070 C   0  0  0  0  0  0  0  0  0  0  0  0
   -7.3470   -1.9600   -4.6270 N   0  0  0  0  0  0  0  0  0  0  0  0
  -12.1450   -0.9640   -2.3390 O   0  0  0  0  0  0  0  0  0  0  0  0
  -18.7610   -1.8760   -2.7390 F   0  0  0  0  0  0  0  0  0  0  0  0
  -18.4550    0.3250   -2.2750 F   0  0  0  0  0  0  0  0  0  0  0  0
  -19.1950   -1.1300   -0.7370 F   0  0  0  0  0  0  0  0  0  0  0  0
  -10.0453   -2.0069   -4.3181 C   0  0  0  0  0  0  0  0  0  0  0  0
   -9.8903   -3.8143   -2.9484 C   0  0  0  0  0  0  0  0  0  0  0  0
   -9.4210   -4.7070   -2.0558 C   0  0  0  0  0  0  0  0  0  0  0  0
  -10.5989   -4.5002   -3.8521 C   0  0  0  0  0  0  0  0  0  0  0  0
  -11.7200   -5.4377   -3.6078 C   0  0  0  0  0  0  0  0  0  0  0  0
  -11.8297   -5.7443   -2.2551 C   0  0  0  0  0  0  0  0  0  0  0  0
  -10.4996   -5.6319   -1.5914 O   0  0  0  0  0  0  0  0  0  0  0  0
  1  2  2  0
  2  3  1  0
  2 16  1  0
  3  4  1  0
  3  6  2  0
  4  5  1  0
  6  7  1  0
  7 15  1  0
  7  8  1  0
 11 12  1  0
 12 28  1  0
 12 27  1  0
 12 26  1  0
 15 16  1  0
 15 25  2  0
 16 17  1  0
 17 18  1  0
 18 19  1  0
 18 29  1  0
 18 30  1  0
 30 31  1  0
 30 32  1  0
 32 33  1  0
 33 34  2  0
 31 35  1  0
 34 35  1  0
  8  9  2  0
  9 10  1  0
 10 11  2  0
 11 13  1  0
 13 14  2  0
 14  8  1  0
 19 20  2  0
 20 21  1  0
 21 22  2  0
 22 23  1  0
 23 24  2  0
 24 19  1  0
M  END

$$$$
No_119-gen_results_new/Mpro_new_generate_500/2024-01-19-21-58-56/
     RDKit          3D

 35 37  0  0  0  0  0  0  0  0999 V2000
   -9.1300   -2.9100    0.4520 O   0  0  0  0  0  0  0  0  0  0  0  0
  -10.2490   -2.6420    0.1800 C   0  0  0  0  0  0  0  0  0  0  0  0
  -11.3800   -3.0650    1.0860 C   0  0  0  0  0  0  0  0  0  0  0  0
  -11.2000   -3.8390    2.3880 C   0  0  0  0  0  0  0  0  0  0  0  0
  -10.9900   -5.0690    2.3420 N   0  0  0  0  0  0  0  0  0  0  0  0
  -12.7310   -2.7290    0.7330 N   0  0  0  0  0  0  0  0  0  0  0  0
  -12.9960   -1.9940   -0.4510 N   0  0  0  0  0  0  0  0  0  0  0  0
  -14.3580   -1.6940   -0.7530 C   0  0  0  0  0  0  0  0  0  0  0  0
  -15.0390   -0.7180   -0.0560 C   0  0  0  0  0  0  0  0  0  0  0  0
  -16.3510   -0.4690   -0.3980 C   0  0  0  0  0  0  0  0  0  0  0  0
  -16.9430   -1.2030   -1.4080 C   0  0  0  0  0  0  0  0  0  0  0  0
  -18.3840   -0.9560   -1.8060 C   0  0  0  0  0  0  0  0  0  0  0  0
  -16.2510   -2.1690   -2.1000 C   0  0  0  0  0  0  0  0  0  0  0  0
  -14.9490   -2.4160   -1.7590 C   0  0  0  0  0  0  0  0  0  0  0  0
  -11.9050   -1.5730   -1.3540 C   0  0  0  0  0  0  0  0  0  0  0  0
  -10.5280   -1.9050   -1.0240 N   0  0  0  0  0  0  0  0  0  0  0  0
   -9.4550   -1.4720   -1.9190 C   0  0  0  0  0  0  0  0  0  0  0  0
   -9.2820   -2.3940   -3.1270 C   0  0  0  0  0  0  0  0  0  0  0  0
   -7.8170   -2.5500   -3.5360 C   0  0  0  0  0  0  0  0  0  0  0  0
   -6.9720   -3.3210   -2.7550 C   0  0  0  0  0  0  0  0  0  0  0  0
   -5.6390   -3.4770   -3.1110 C   0  0  0  0  0  0  0  0  0  0  0  0
   -5.1940   -2.8390   -4.2640 C   0  0  0  0  0  0  0  0  0  0  0  0
   -6.0850   -2.0780   -5.0070 C   0  0  0  0  0  0  0  0  0  0  0  0
   -7.3470   -1.9600   -4.6270 N   0  0  0  0  0  0  0  0  0  0  0  0
  -12.1450   -0.9640   -2.3390 O   0  0  0  0  0  0  0  0  0  0  0  0
  -18.7610   -1.8760   -2.7390 F   0  0  0  0  0  0  0  0  0  0  0  0
  -18.4550    0.3250   -2.2750 F   0  0  0  0  0  0  0  0  0  0  0  0
  -19.1950   -1.1300   -0.7370 F   0  0  0  0  0  0  0  0  0  0  0  0
   -9.6560   -3.6380   -2.7665 F   0  0  0  0  0  0  0  0  0  0  0  0
  -10.0460   -1.9845   -4.1698 F   0  0  0  0  0  0  0  0  0  0  0  0
  -16.7841   -3.0194   -3.1226 O   0  0  0  0  0  0  0  0  0  0  0  0
  -17.1300   -2.7849   -4.2713 C   0  0  0  0  0  0  0  0  0  0  0  0
  -18.3167   -3.3272   -4.0319 C   0  0  0  0  0  0  0  0  0  0  0  0
  -19.3879   -2.6140   -4.8375 C   0  0  0  0  0  0  0  0  0  0  0  0
  -18.9308   -3.7124   -2.9043 C   0  0  0  0  0  0  0  0  0  0  0  0
  1  2  2  0
  2  3  1  0
  2 16  1  0
  3  4  1  0
  3  6  2  0
  4  5  1  0
  6  7  1  0
  7 15  1  0
  7  8  1  0
 11 12  1  0
 12 28  1  0
 12 27  1  0
 12 26  1  0
 15 16  1  0
 15 25  2  0
 16 17  1  0
 17 18  1  0
 18 19  1  0
 18 29  1  0
 18 30  1  0
 13 31  1  0
 31 32  1  0
 32 33  1  0
 33 34  1  0
 33 35  1  0
  8  9  2  0
  9 10  1  0
 10 11  2  0
 11 13  1  0
 13 14  2  0
 14  8  1  0
 19 20  2  0
 20 21  1  0
 21 22  2  0
 22 23  1  0
 23 24  2  0
 24 19  1  0
M  END

$$$$
No_120-gen_results_new/Mpro_new_generate_500/2024-01-19-21-58-56/
     RDKit          3D

 32 34  0  0  0  0  0  0  0  0999 V2000
   -9.1300   -2.9100    0.4520 O   0  0  0  0  0  0  0  0  0  0  0  0
  -10.2490   -2.6420    0.1800 C   0  0  0  0  0  0  0  0  0  0  0  0
  -11.3800   -3.0650    1.0860 C   0  0  0  0  0  0  0  0  0  0  0  0
  -11.2000   -3.8390    2.3880 C   0  0  0  0  0  0  0  0  0  0  0  0
  -10.9900   -5.0690    2.3420 N   0  0  0  0  0  0  0  0  0  0  0  0
  -12.7310   -2.7290    0.7330 N   0  0  0  0  0  0  0  0  0  0  0  0
  -12.9960   -1.9940   -0.4510 N   0  0  0  0  0  0  0  0  0  0  0  0
  -14.3580   -1.6940   -0.7530 C   0  0  0  0  0  0  0  0  0  0  0  0
  -15.0390   -0.7180   -0.0560 C   0  0  0  0  0  0  0  0  0  0  0  0
  -16.3510   -0.4690   -0.3980 C   0  0  0  0  0  0  0  0  0  0  0  0
  -16.9430   -1.2030   -1.4080 C   0  0  0  0  0  0  0  0  0  0  0  0
  -18.3840   -0.9560   -1.8060 C   0  0  0  0  0  0  0  0  0  0  0  0
  -16.2510   -2.1690   -2.1000 C   0  0  0  0  0  0  0  0  0  0  0  0
  -14.9490   -2.4160   -1.7590 C   0  0  0  0  0  0  0  0  0  0  0  0
  -11.9050   -1.5730   -1.3540 C   0  0  0  0  0  0  0  0  0  0  0  0
  -10.5280   -1.9050   -1.0240 N   0  0  0  0  0  0  0  0  0  0  0  0
   -9.4550   -1.4720   -1.9190 C   0  0  0  0  0  0  0  0  0  0  0  0
   -9.2820   -2.3940   -3.1270 C   0  0  0  0  0  0  0  0  0  0  0  0
   -7.8170   -2.5500   -3.5360 C   0  0  0  0  0  0  0  0  0  0  0  0
   -6.9720   -3.3210   -2.7550 C   0  0  0  0  0  0  0  0  0  0  0  0
   -5.6390   -3.4770   -3.1110 C   0  0  0  0  0  0  0  0  0  0  0  0
   -5.1940   -2.8390   -4.2640 C   0  0  0  0  0  0  0  0  0  0  0  0
   -6.0850   -2.0780   -5.0070 C   0  0  0  0  0  0  0  0  0  0  0  0
   -7.3470   -1.9600   -4.6270 N   0  0  0  0  0  0  0  0  0  0  0  0
  -12.1450   -0.9640   -2.3390 O   0  0  0  0  0  0  0  0  0  0  0  0
  -18.7610   -1.8760   -2.7390 F   0  0  0  0  0  0  0  0  0  0  0  0
  -18.4550    0.3250   -2.2750 F   0  0  0  0  0  0  0  0  0  0  0  0
  -19.1950   -1.1300   -0.7370 F   0  0  0  0  0  0  0  0  0  0  0  0
  -10.1467   -3.0903   -3.8357 C   0  0  0  0  0  0  0  0  0  0  0  0
  -10.1681   -2.5855   -3.6007 C   0  0  0  0  0  0  0  0  0  0  0  0
  -10.5179   -1.6577   -4.5811 F   0  0  0  0  0  0  0  0  0  0  0  0
  -11.4114   -2.4930   -2.8479 F   0  0  0  0  0  0  0  0  0  0  0  0
  1  2  2  0
  2  3  1  0
  2 16  1  0
  3  4  1  0
  3  6  2  0
  4  5  1  0
  6  7  1  0
  7 15  1  0
  7  8  1  0
 11 12  1  0
 12 28  1  0
 12 27  1  0
 12 26  1  0
 15 16  1  0
 15 25  2  0
 16 17  1  0
 17 18  1  0
 18 19  1  0
 18 29  1  0
 29 30  1  0
 30 31  1  0
 30 32  1  0
  8  9  2  0
  9 10  1  0
 10 11  2  0
 11 13  1  0
 13 14  2  0
 14  8  1  0
 19 20  2  0
 20 21  1  0
 21 22  2  0
 22 23  1  0
 23 24  2  0
 24 19  1  0
M  END

$$$$
No_121-gen_results_new/Mpro_new_generate_500/2024-01-19-21-58-56/
     RDKit          3D

 35 37  0  0  0  0  0  0  0  0999 V2000
   -9.1300   -2.9100    0.4520 O   0  0  0  0  0  0  0  0  0  0  0  0
  -10.2490   -2.6420    0.1800 C   0  0  0  0  0  0  0  0  0  0  0  0
  -11.3800   -3.0650    1.0860 C   0  0  0  0  0  0  0  0  0  0  0  0
  -11.2000   -3.8390    2.3880 C   0  0  0  0  0  0  0  0  0  0  0  0
  -10.9900   -5.0690    2.3420 N   0  0  0  0  0  0  0  0  0  0  0  0
  -12.7310   -2.7290    0.7330 N   0  0  0  0  0  0  0  0  0  0  0  0
  -12.9960   -1.9940   -0.4510 N   0  0  0  0  0  0  0  0  0  0  0  0
  -14.3580   -1.6940   -0.7530 C   0  0  0  0  0  0  0  0  0  0  0  0
  -15.0390   -0.7180   -0.0560 C   0  0  0  0  0  0  0  0  0  0  0  0
  -16.3510   -0.4690   -0.3980 C   0  0  0  0  0  0  0  0  0  0  0  0
  -16.9430   -1.2030   -1.4080 C   0  0  0  0  0  0  0  0  0  0  0  0
  -18.3840   -0.9560   -1.8060 C   0  0  0  0  0  0  0  0  0  0  0  0
  -16.2510   -2.1690   -2.1000 C   0  0  0  0  0  0  0  0  0  0  0  0
  -14.9490   -2.4160   -1.7590 C   0  0  0  0  0  0  0  0  0  0  0  0
  -11.9050   -1.5730   -1.3540 C   0  0  0  0  0  0  0  0  0  0  0  0
  -10.5280   -1.9050   -1.0240 N   0  0  0  0  0  0  0  0  0  0  0  0
   -9.4550   -1.4720   -1.9190 C   0  0  0  0  0  0  0  0  0  0  0  0
   -9.2820   -2.3940   -3.1270 C   0  0  0  0  0  0  0  0  0  0  0  0
   -7.8170   -2.5500   -3.5360 C   0  0  0  0  0  0  0  0  0  0  0  0
   -6.9720   -3.3210   -2.7550 C   0  0  0  0  0  0  0  0  0  0  0  0
   -5.6390   -3.4770   -3.1110 C   0  0  0  0  0  0  0  0  0  0  0  0
   -5.1940   -2.8390   -4.2640 C   0  0  0  0  0  0  0  0  0  0  0  0
   -6.0850   -2.0780   -5.0070 C   0  0  0  0  0  0  0  0  0  0  0  0
   -7.3470   -1.9600   -4.6270 N   0  0  0  0  0  0  0  0  0  0  0  0
  -12.1450   -0.9640   -2.3390 O   0  0  0  0  0  0  0  0  0  0  0  0
  -18.7610   -1.8760   -2.7390 F   0  0  0  0  0  0  0  0  0  0  0  0
  -18.4550    0.3250   -2.2750 F   0  0  0  0  0  0  0  0  0  0  0  0
  -19.1950   -1.1300   -0.7370 F   0  0  0  0  0  0  0  0  0  0  0  0
   -9.7920   -3.7475   -2.8656 C   0  0  0  0  0  0  0  0  0  0  0  0
  -10.0717   -1.8029   -4.3549 C   0  0  0  0  0  0  0  0  0  0  0  0
  -10.8816   -4.2900   -3.6532 C   0  0  0  0  0  0  0  0  0  0  0  0
  -10.4719   -4.5023   -4.6401 C   0  0  0  0  0  0  0  0  0  0  0  0
  -11.2785   -5.5757   -4.9533 C   0  0  0  0  0  0  0  0  0  0  0  0
  -11.6916   -5.2366   -6.1780 N   0  0  0  0  0  0  0  0  0  0  0  0
  -12.2296   -6.0956   -6.9141 C   0  0  0  0  0  0  0  0  0  0  0  0
  1  2  2  0
  2  3  1  0
  2 16  1  0
  3  4  1  0
  3  6  2  0
  4  5  1  0
  6  7  1  0
  7 15  1  0
  7  8  1  0
 11 12  1  0
 12 28  1  0
 12 27  1  0
 12 26  1  0
 15 16  1  0
 15 25  2  0
 16 17  1  0
 17 18  1  0
 18 19  1  0
 18 29  1  0
 18 30  1  0
 29 31  1  0
 31 32  1  0
 32 33  1  0
 33 34  1  0
 34 35  1  0
  8  9  2  0
  9 10  1  0
 10 11  2  0
 11 13  1  0
 13 14  2  0
 14  8  1  0
 19 20  2  0
 20 21  1  0
 21 22  2  0
 22 23  1  0
 23 24  2  0
 24 19  1  0
M  END

$$$$
No_122-gen_results_new/Mpro_new_generate_500/2024-01-19-21-58-56/
     RDKit          3D

 35 37  0  0  0  0  0  0  0  0999 V2000
   -9.1300   -2.9100    0.4520 O   0  0  0  0  0  0  0  0  0  0  0  0
  -10.2490   -2.6420    0.1800 C   0  0  0  0  0  0  0  0  0  0  0  0
  -11.3800   -3.0650    1.0860 C   0  0  0  0  0  0  0  0  0  0  0  0
  -11.2000   -3.8390    2.3880 C   0  0  0  0  0  0  0  0  0  0  0  0
  -10.9900   -5.0690    2.3420 N   0  0  0  0  0  0  0  0  0  0  0  0
  -12.7310   -2.7290    0.7330 N   0  0  0  0  0  0  0  0  0  0  0  0
  -12.9960   -1.9940   -0.4510 N   0  0  0  0  0  0  0  0  0  0  0  0
  -14.3580   -1.6940   -0.7530 C   0  0  0  0  0  0  0  0  0  0  0  0
  -15.0390   -0.7180   -0.0560 C   0  0  0  0  0  0  0  0  0  0  0  0
  -16.3510   -0.4690   -0.3980 C   0  0  0  0  0  0  0  0  0  0  0  0
  -16.9430   -1.2030   -1.4080 C   0  0  0  0  0  0  0  0  0  0  0  0
  -18.3840   -0.9560   -1.8060 C   0  0  0  0  0  0  0  0  0  0  0  0
  -16.2510   -2.1690   -2.1000 C   0  0  0  0  0  0  0  0  0  0  0  0
  -14.9490   -2.4160   -1.7590 C   0  0  0  0  0  0  0  0  0  0  0  0
  -11.9050   -1.5730   -1.3540 C   0  0  0  0  0  0  0  0  0  0  0  0
  -10.5280   -1.9050   -1.0240 N   0  0  0  0  0  0  0  0  0  0  0  0
   -9.4550   -1.4720   -1.9190 C   0  0  0  0  0  0  0  0  0  0  0  0
   -9.2820   -2.3940   -3.1270 C   0  0  0  0  0  0  0  0  0  0  0  0
   -7.8170   -2.5500   -3.5360 C   0  0  0  0  0  0  0  0  0  0  0  0
   -6.9720   -3.3210   -2.7550 C   0  0  0  0  0  0  0  0  0  0  0  0
   -5.6390   -3.4770   -3.1110 C   0  0  0  0  0  0  0  0  0  0  0  0
   -5.1940   -2.8390   -4.2640 C   0  0  0  0  0  0  0  0  0  0  0  0
   -6.0850   -2.0780   -5.0070 C   0  0  0  0  0  0  0  0  0  0  0  0
   -7.3470   -1.9600   -4.6270 N   0  0  0  0  0  0  0  0  0  0  0  0
  -12.1450   -0.9640   -2.3390 O   0  0  0  0  0  0  0  0  0  0  0  0
  -18.7610   -1.8760   -2.7390 F   0  0  0  0  0  0  0  0  0  0  0  0
  -18.4550    0.3250   -2.2750 F   0  0  0  0  0  0  0  0  0  0  0  0
  -19.1950   -1.1300   -0.7370 F   0  0  0  0  0  0  0  0  0  0  0  0
   -9.7920   -3.7475   -2.8656 C   0  0  0  0  0  0  0  0  0  0  0  0
  -10.0717   -1.8029   -4.3549 C   0  0  0  0  0  0  0  0  0  0  0  0
  -10.0419   -4.6597   -4.1091 C   0  0  0  0  0  0  0  0  0  0  0  0
  -11.1929   -4.5008   -4.5063 F   0  0  0  0  0  0  0  0  0  0  0  0
   -9.7853   -5.9236   -3.8248 O   0  0  0  0  0  0  0  0  0  0  0  0
   -8.5775   -6.2153   -4.2165 C   0  0  0  0  0  0  0  0  0  0  0  0
   -7.9798   -7.3976   -3.5768 C   0  0  0  0  0  0  0  0  0  0  0  0
  1  2  2  0
  2  3  1  0
  2 16  1  0
  3  4  1  0
  3  6  2  0
  4  5  1  0
  6  7  1  0
  7 15  1  0
  7  8  1  0
 11 12  1  0
 12 28  1  0
 12 27  1  0
 12 26  1  0
 15 16  1  0
 15 25  2  0
 16 17  1  0
 17 18  1  0
 18 19  1  0
 18 29  1  0
 18 30  1  0
 29 31  1  0
 31 32  1  0
 31 33  1  0
 33 34  1  0
 34 35  1  0
  8  9  2  0
  9 10  1  0
 10 11  2  0
 11 13  1  0
 13 14  2  0
 14  8  1  0
 19 20  2  0
 20 21  1  0
 21 22  2  0
 22 23  1  0
 23 24  2  0
 24 19  1  0
M  END

$$$$
No_123-gen_results_new/Mpro_new_generate_500/2024-01-19-21-58-56/
     RDKit          3D

 35 38  0  0  0  0  0  0  0  0999 V2000
   -9.1300   -2.9100    0.4520 O   0  0  0  0  0  0  0  0  0  0  0  0
  -10.2490   -2.6420    0.1800 C   0  0  0  0  0  0  0  0  0  0  0  0
  -11.3800   -3.0650    1.0860 C   0  0  0  0  0  0  0  0  0  0  0  0
  -11.2000   -3.8390    2.3880 C   0  0  0  0  0  0  0  0  0  0  0  0
  -10.9900   -5.0690    2.3420 N   0  0  0  0  0  0  0  0  0  0  0  0
  -12.7310   -2.7290    0.7330 N   0  0  0  0  0  0  0  0  0  0  0  0
  -12.9960   -1.9940   -0.4510 N   0  0  0  0  0  0  0  0  0  0  0  0
  -14.3580   -1.6940   -0.7530 C   0  0  0  0  0  0  0  0  0  0  0  0
  -15.0390   -0.7180   -0.0560 C   0  0  0  0  0  0  0  0  0  0  0  0
  -16.3510   -0.4690   -0.3980 C   0  0  0  0  0  0  0  0  0  0  0  0
  -16.9430   -1.2030   -1.4080 C   0  0  0  0  0  0  0  0  0  0  0  0
  -18.3840   -0.9560   -1.8060 C   0  0  0  0  0  0  0  0  0  0  0  0
  -16.2510   -2.1690   -2.1000 C   0  0  0  0  0  0  0  0  0  0  0  0
  -14.9490   -2.4160   -1.7590 C   0  0  0  0  0  0  0  0  0  0  0  0
  -11.9050   -1.5730   -1.3540 C   0  0  0  0  0  0  0  0  0  0  0  0
  -10.5280   -1.9050   -1.0240 N   0  0  0  0  0  0  0  0  0  0  0  0
   -9.4550   -1.4720   -1.9190 C   0  0  0  0  0  0  0  0  0  0  0  0
   -9.2820   -2.3940   -3.1270 C   0  0  0  0  0  0  0  0  0  0  0  0
   -7.8170   -2.5500   -3.5360 C   0  0  0  0  0  0  0  0  0  0  0  0
   -6.9720   -3.3210   -2.7550 C   0  0  0  0  0  0  0  0  0  0  0  0
   -5.6390   -3.4770   -3.1110 C   0  0  0  0  0  0  0  0  0  0  0  0
   -5.1940   -2.8390   -4.2640 C   0  0  0  0  0  0  0  0  0  0  0  0
   -6.0850   -2.0780   -5.0070 C   0  0  0  0  0  0  0  0  0  0  0  0
   -7.3470   -1.9600   -4.6270 N   0  0  0  0  0  0  0  0  0  0  0  0
  -12.1450   -0.9640   -2.3390 O   0  0  0  0  0  0  0  0  0  0  0  0
  -18.7610   -1.8760   -2.7390 F   0  0  0  0  0  0  0  0  0  0  0  0
  -18.4550    0.3250   -2.2750 F   0  0  0  0  0  0  0  0  0  0  0  0
  -19.1950   -1.1300   -0.7370 F   0  0  0  0  0  0  0  0  0  0  0  0
  -10.0453   -2.0069   -4.3181 C   0  0  0  0  0  0  0  0  0  0  0  0
   -9.8476   -3.8948   -2.8015 C   0  0  0  0  0  0  0  0  0  0  0  0
  -10.1714   -4.7331   -3.9309 C   0  0  0  0  0  0  0  0  0  0  0  0
  -10.6131   -4.1472   -4.9938 O   0  0  0  0  0  0  0  0  0  0  0  0
  -10.9143   -2.8234   -5.0615 C   0  0  0  0  0  0  0  0  0  0  0  0
  -11.3337   -2.2775   -6.4664 C   0  0  0  0  0  0  0  0  0  0  0  0
  -11.7369   -0.9511   -6.3948 C   0  0  0  0  0  0  0  0  0  0  0  0
  1  2  2  0
  2  3  1  0
  2 16  1  0
  3  4  1  0
  3  6  2  0
  4  5  1  0
  6  7  1  0
  7 15  1  0
  7  8  1  0
 11 12  1  0
 12 28  1  0
 12 27  1  0
 12 26  1  0
 15 16  1  0
 15 25  2  0
 16 17  1  0
 17 18  1  0
 18 19  1  0
 18 29  1  0
 18 30  1  0
 30 31  2  0
 31 32  1  0
 29 33  2  0
 32 33  1  0
 33 34  1  0
 34 35  2  0
  8  9  2  0
  9 10  1  0
 10 11  2  0
 11 13  1  0
 13 14  2  0
 14  8  1  0
 19 20  2  0
 20 21  1  0
 21 22  2  0
 22 23  1  0
 23 24  2  0
 24 19  1  0
M  END

$$$$
No_124-gen_results_new/Mpro_new_generate_500/2024-01-19-21-58-56/
     RDKit          3D

 35 38  0  0  0  0  0  0  0  0999 V2000
   -9.1300   -2.9100    0.4520 O   0  0  0  0  0  0  0  0  0  0  0  0
  -10.2490   -2.6420    0.1800 C   0  0  0  0  0  0  0  0  0  0  0  0
  -11.3800   -3.0650    1.0860 C   0  0  0  0  0  0  0  0  0  0  0  0
  -11.2000   -3.8390    2.3880 C   0  0  0  0  0  0  0  0  0  0  0  0
  -10.9900   -5.0690    2.3420 N   0  0  0  0  0  0  0  0  0  0  0  0
  -12.7310   -2.7290    0.7330 N   0  0  0  0  0  0  0  0  0  0  0  0
  -12.9960   -1.9940   -0.4510 N   0  0  0  0  0  0  0  0  0  0  0  0
  -14.3580   -1.6940   -0.7530 C   0  0  0  0  0  0  0  0  0  0  0  0
  -15.0390   -0.7180   -0.0560 C   0  0  0  0  0  0  0  0  0  0  0  0
  -16.3510   -0.4690   -0.3980 C   0  0  0  0  0  0  0  0  0  0  0  0
  -16.9430   -1.2030   -1.4080 C   0  0  0  0  0  0  0  0  0  0  0  0
  -18.3840   -0.9560   -1.8060 C   0  0  0  0  0  0  0  0  0  0  0  0
  -16.2510   -2.1690   -2.1000 C   0  0  0  0  0  0  0  0  0  0  0  0
  -14.9490   -2.4160   -1.7590 C   0  0  0  0  0  0  0  0  0  0  0  0
  -11.9050   -1.5730   -1.3540 C   0  0  0  0  0  0  0  0  0  0  0  0
  -10.5280   -1.9050   -1.0240 N   0  0  0  0  0  0  0  0  0  0  0  0
   -9.4550   -1.4720   -1.9190 C   0  0  0  0  0  0  0  0  0  0  0  0
   -9.2820   -2.3940   -3.1270 C   0  0  0  0  0  0  0  0  0  0  0  0
   -7.8170   -2.5500   -3.5360 C   0  0  0  0  0  0  0  0  0  0  0  0
   -6.9720   -3.3210   -2.7550 C   0  0  0  0  0  0  0  0  0  0  0  0
   -5.6390   -3.4770   -3.1110 C   0  0  0  0  0  0  0  0  0  0  0  0
   -5.1940   -2.8390   -4.2640 C   0  0  0  0  0  0  0  0  0  0  0  0
   -6.0850   -2.0780   -5.0070 C   0  0  0  0  0  0  0  0  0  0  0  0
   -7.3470   -1.9600   -4.6270 N   0  0  0  0  0  0  0  0  0  0  0  0
  -12.1450   -0.9640   -2.3390 O   0  0  0  0  0  0  0  0  0  0  0  0
  -18.7610   -1.8760   -2.7390 F   0  0  0  0  0  0  0  0  0  0  0  0
  -18.4550    0.3250   -2.2750 F   0  0  0  0  0  0  0  0  0  0  0  0
  -19.1950   -1.1300   -0.7370 F   0  0  0  0  0  0  0  0  0  0  0  0
  -10.0453   -2.0069   -4.3181 C   0  0  0  0  0  0  0  0  0  0  0  0
   -9.8476   -3.8948   -2.8015 C   0  0  0  0  0  0  0  0  0  0  0  0
  -10.1714   -4.7331   -3.9309 C   0  0  0  0  0  0  0  0  0  0  0  0
  -10.1706   -6.0308   -3.5979 O   0  0  0  0  0  0  0  0  0  0  0  0
   -9.4459   -6.4041   -2.5012 C   0  0  0  0  0  0  0  0  0  0  0  0
   -9.2880   -5.1443   -1.6414 C   0  0  0  0  0  0  0  0  0  0  0  0
   -9.1533   -7.4685   -1.9760 O   0  0  0  0  0  0  0  0  0  0  0  0
  1  2  2  0
  2  3  1  0
  2 16  1  0
  3  4  1  0
  3  6  2  0
  4  5  1  0
  6  7  1  0
  7 15  1  0
  7  8  1  0
 11 12  1  0
 12 28  1  0
 12 27  1  0
 12 26  1  0
 15 16  1  0
 15 25  2  0
 16 17  1  0
 17 18  1  0
 18 19  1  0
 18 29  1  0
 18 30  1  0
 30 31  2  0
 31 32  1  0
 32 33  1  0
 30 34  1  0
 33 34  1  0
 33 35  2  0
  8  9  2  0
  9 10  1  0
 10 11  2  0
 11 13  1  0
 13 14  2  0
 14  8  1  0
 19 20  2  0
 20 21  1  0
 21 22  2  0
 22 23  1  0
 23 24  2  0
 24 19  1  0
M  END

$$$$
No_125-gen_results_new/Mpro_new_generate_500/2024-01-19-21-58-56/
     RDKit          3D

 31 33  0  0  0  0  0  0  0  0999 V2000
   -9.1300   -2.9100    0.4520 O   0  0  0  0  0  0  0  0  0  0  0  0
  -10.2490   -2.6420    0.1800 C   0  0  0  0  0  0  0  0  0  0  0  0
  -11.3800   -3.0650    1.0860 C   0  0  0  0  0  0  0  0  0  0  0  0
  -11.2000   -3.8390    2.3880 C   0  0  0  0  0  0  0  0  0  0  0  0
  -10.9900   -5.0690    2.3420 N   0  0  0  0  0  0  0  0  0  0  0  0
  -12.7310   -2.7290    0.7330 N   0  0  0  0  0  0  0  0  0  0  0  0
  -12.9960   -1.9940   -0.4510 N   0  0  0  0  0  0  0  0  0  0  0  0
  -14.3580   -1.6940   -0.7530 C   0  0  0  0  0  0  0  0  0  0  0  0
  -15.0390   -0.7180   -0.0560 C   0  0  0  0  0  0  0  0  0  0  0  0
  -16.3510   -0.4690   -0.3980 C   0  0  0  0  0  0  0  0  0  0  0  0
  -16.9430   -1.2030   -1.4080 C   0  0  0  0  0  0  0  0  0  0  0  0
  -18.3840   -0.9560   -1.8060 C   0  0  0  0  0  0  0  0  0  0  0  0
  -16.2510   -2.1690   -2.1000 C   0  0  0  0  0  0  0  0  0  0  0  0
  -14.9490   -2.4160   -1.7590 C   0  0  0  0  0  0  0  0  0  0  0  0
  -11.9050   -1.5730   -1.3540 C   0  0  0  0  0  0  0  0  0  0  0  0
  -10.5280   -1.9050   -1.0240 N   0  0  0  0  0  0  0  0  0  0  0  0
   -9.4550   -1.4720   -1.9190 C   0  0  0  0  0  0  0  0  0  0  0  0
   -9.2820   -2.3940   -3.1270 C   0  0  0  0  0  0  0  0  0  0  0  0
   -7.8170   -2.5500   -3.5360 C   0  0  0  0  0  0  0  0  0  0  0  0
   -6.9720   -3.3210   -2.7550 C   0  0  0  0  0  0  0  0  0  0  0  0
   -5.6390   -3.4770   -3.1110 C   0  0  0  0  0  0  0  0  0  0  0  0
   -5.1940   -2.8390   -4.2640 C   0  0  0  0  0  0  0  0  0  0  0  0
   -6.0850   -2.0780   -5.0070 C   0  0  0  0  0  0  0  0  0  0  0  0
   -7.3470   -1.9600   -4.6270 N   0  0  0  0  0  0  0  0  0  0  0  0
  -12.1450   -0.9640   -2.3390 O   0  0  0  0  0  0  0  0  0  0  0  0
  -18.7610   -1.8760   -2.7390 F   0  0  0  0  0  0  0  0  0  0  0  0
  -18.4550    0.3250   -2.2750 F   0  0  0  0  0  0  0  0  0  0  0  0
  -19.1950   -1.1300   -0.7370 F   0  0  0  0  0  0  0  0  0  0  0  0
  -10.0899   -3.0088   -3.7244 O   0  0  0  0  0  0  0  0  0  0  0  0
  -16.8846   -3.3106   -3.3817 S   0  0  0  0  0  0  0  0  0  0  0  0
  -16.6541   -4.9086   -2.5895 C   0  0  0  0  0  0  0  0  0  0  0  0
  1  2  2  0
  2  3  1  0
  2 16  1  0
  3  4  1  0
  3  6  2  0
  4  5  1  0
  6  7  1  0
  7 15  1  0
  7  8  1  0
 11 12  1  0
 12 28  1  0
 12 27  1  0
 12 26  1  0
 15 16  1  0
 15 25  2  0
 16 17  1  0
 17 18  1  0
 18 19  1  0
 18 29  2  0
 13 30  1  0
 30 31  1  0
  8  9  2  0
  9 10  1  0
 10 11  2  0
 11 13  1  0
 13 14  2  0
 14  8  1  0
 19 20  2  0
 20 21  1  0
 21 22  2  0
 22 23  1  0
 23 24  2  0
 24 19  1  0
M  END

$$$$
No_126-gen_results_new/Mpro_new_generate_500/2024-01-19-21-58-56/
     RDKit          3D

 33 35  0  0  0  0  0  0  0  0999 V2000
   -9.1300   -2.9100    0.4520 O   0  0  0  0  0  0  0  0  0  0  0  0
  -10.2490   -2.6420    0.1800 C   0  0  0  0  0  0  0  0  0  0  0  0
  -11.3800   -3.0650    1.0860 C   0  0  0  0  0  0  0  0  0  0  0  0
  -11.2000   -3.8390    2.3880 C   0  0  0  0  0  0  0  0  0  0  0  0
  -10.9900   -5.0690    2.3420 N   0  0  0  0  0  0  0  0  0  0  0  0
  -12.7310   -2.7290    0.7330 N   0  0  0  0  0  0  0  0  0  0  0  0
  -12.9960   -1.9940   -0.4510 N   0  0  0  0  0  0  0  0  0  0  0  0
  -14.3580   -1.6940   -0.7530 C   0  0  0  0  0  0  0  0  0  0  0  0
  -15.0390   -0.7180   -0.0560 C   0  0  0  0  0  0  0  0  0  0  0  0
  -16.3510   -0.4690   -0.3980 C   0  0  0  0  0  0  0  0  0  0  0  0
  -16.9430   -1.2030   -1.4080 C   0  0  0  0  0  0  0  0  0  0  0  0
  -18.3840   -0.9560   -1.8060 C   0  0  0  0  0  0  0  0  0  0  0  0
  -16.2510   -2.1690   -2.1000 C   0  0  0  0  0  0  0  0  0  0  0  0
  -14.9490   -2.4160   -1.7590 C   0  0  0  0  0  0  0  0  0  0  0  0
  -11.9050   -1.5730   -1.3540 C   0  0  0  0  0  0  0  0  0  0  0  0
  -10.5280   -1.9050   -1.0240 N   0  0  0  0  0  0  0  0  0  0  0  0
   -9.4550   -1.4720   -1.9190 C   0  0  0  0  0  0  0  0  0  0  0  0
   -9.2820   -2.3940   -3.1270 C   0  0  0  0  0  0  0  0  0  0  0  0
   -7.8170   -2.5500   -3.5360 C   0  0  0  0  0  0  0  0  0  0  0  0
   -6.9720   -3.3210   -2.7550 C   0  0  0  0  0  0  0  0  0  0  0  0
   -5.6390   -3.4770   -3.1110 C   0  0  0  0  0  0  0  0  0  0  0  0
   -5.1940   -2.8390   -4.2640 C   0  0  0  0  0  0  0  0  0  0  0  0
   -6.0850   -2.0780   -5.0070 C   0  0  0  0  0  0  0  0  0  0  0  0
   -7.3470   -1.9600   -4.6270 N   0  0  0  0  0  0  0  0  0  0  0  0
  -12.1450   -0.9640   -2.3390 O   0  0  0  0  0  0  0  0  0  0  0  0
  -18.7610   -1.8760   -2.7390 F   0  0  0  0  0  0  0  0  0  0  0  0
  -18.4550    0.3250   -2.2750 F   0  0  0  0  0  0  0  0  0  0  0  0
  -19.1950   -1.1300   -0.7370 F   0  0  0  0  0  0  0  0  0  0  0  0
  -10.1467   -3.0903   -3.8357 C   0  0  0  0  0  0  0  0  0  0  0  0
  -10.1681   -2.5855   -3.6007 C   0  0  0  0  0  0  0  0  0  0  0  0
  -11.5887   -2.4159   -3.7786 S   0  0  0  0  0  0  0  0  0  0  0  0
  -12.7482   -3.4182   -3.6712 O   0  0  0  0  0  0  0  0  0  0  0  0
  -11.7914   -1.7155   -5.1149 O   0  0  0  0  0  0  0  0  0  0  0  0
  1  2  2  0
  2  3  1  0
  2 16  1  0
  3  4  1  0
  3  6  2  0
  4  5  1  0
  6  7  1  0
  7 15  1  0
  7  8  1  0
 11 12  1  0
 12 28  1  0
 12 27  1  0
 12 26  1  0
 15 16  1  0
 15 25  2  0
 16 17  1  0
 17 18  1  0
 18 19  1  0
 18 29  1  0
 29 30  1  0
 30 31  1  0
 31 32  2  0
 31 33  2  0
  8  9  2  0
  9 10  1  0
 10 11  2  0
 11 13  1  0
 13 14  2  0
 14  8  1  0
 19 20  2  0
 20 21  1  0
 21 22  2  0
 22 23  1  0
 23 24  2  0
 24 19  1  0
M  END

$$$$
No_127-gen_results_new/Mpro_new_generate_500/2024-01-19-21-58-56/
     RDKit          3D

 35 37  0  0  0  0  0  0  0  0999 V2000
   -9.1300   -2.9100    0.4520 O   0  0  0  0  0  0  0  0  0  0  0  0
  -10.2490   -2.6420    0.1800 C   0  0  0  0  0  0  0  0  0  0  0  0
  -11.3800   -3.0650    1.0860 C   0  0  0  0  0  0  0  0  0  0  0  0
  -11.2000   -3.8390    2.3880 C   0  0  0  0  0  0  0  0  0  0  0  0
  -10.9900   -5.0690    2.3420 N   0  0  0  0  0  0  0  0  0  0  0  0
  -12.7310   -2.7290    0.7330 N   0  0  0  0  0  0  0  0  0  0  0  0
  -12.9960   -1.9940   -0.4510 N   0  0  0  0  0  0  0  0  0  0  0  0
  -14.3580   -1.6940   -0.7530 C   0  0  0  0  0  0  0  0  0  0  0  0
  -15.0390   -0.7180   -0.0560 C   0  0  0  0  0  0  0  0  0  0  0  0
  -16.3510   -0.4690   -0.3980 C   0  0  0  0  0  0  0  0  0  0  0  0
  -16.9430   -1.2030   -1.4080 C   0  0  0  0  0  0  0  0  0  0  0  0
  -18.3840   -0.9560   -1.8060 C   0  0  0  0  0  0  0  0  0  0  0  0
  -16.2510   -2.1690   -2.1000 C   0  0  0  0  0  0  0  0  0  0  0  0
  -14.9490   -2.4160   -1.7590 C   0  0  0  0  0  0  0  0  0  0  0  0
  -11.9050   -1.5730   -1.3540 C   0  0  0  0  0  0  0  0  0  0  0  0
  -10.5280   -1.9050   -1.0240 N   0  0  0  0  0  0  0  0  0  0  0  0
   -9.4550   -1.4720   -1.9190 C   0  0  0  0  0  0  0  0  0  0  0  0
   -9.2820   -2.3940   -3.1270 C   0  0  0  0  0  0  0  0  0  0  0  0
   -7.8170   -2.5500   -3.5360 C   0  0  0  0  0  0  0  0  0  0  0  0
   -6.9720   -3.3210   -2.7550 C   0  0  0  0  0  0  0  0  0  0  0  0
   -5.6390   -3.4770   -3.1110 C   0  0  0  0  0  0  0  0  0  0  0  0
   -5.1940   -2.8390   -4.2640 C   0  0  0  0  0  0  0  0  0  0  0  0
   -6.0850   -2.0780   -5.0070 C   0  0  0  0  0  0  0  0  0  0  0  0
   -7.3470   -1.9600   -4.6270 N   0  0  0  0  0  0  0  0  0  0  0  0
  -12.1450   -0.9640   -2.3390 O   0  0  0  0  0  0  0  0  0  0  0  0
  -18.7610   -1.8760   -2.7390 F   0  0  0  0  0  0  0  0  0  0  0  0
  -18.4550    0.3250   -2.2750 F   0  0  0  0  0  0  0  0  0  0  0  0
  -19.1950   -1.1300   -0.7370 F   0  0  0  0  0  0  0  0  0  0  0  0
   -9.7920   -3.7475   -2.8656 C   0  0  0  0  0  0  0  0  0  0  0  0
  -10.0717   -1.8029   -4.3549 C   0  0  0  0  0  0  0  0  0  0  0  0
  -10.0419   -4.6597   -4.1091 C   0  0  0  0  0  0  0  0  0  0  0  0
   -9.7282   -5.9213   -3.9385 O   0  0  0  0  0  0  0  0  0  0  0  0
   -9.0386   -6.4360   -2.9108 C   0  0  0  0  0  0  0  0  0  0  0  0
   -9.4534   -6.7999   -1.7603 C   0  0  0  0  0  0  0  0  0  0  0  0
   -7.5806   -6.4860   -3.1940 C   0  0  0  0  0  0  0  0  0  0  0  0
  1  2  2  0
  2  3  1  0
  2 16  1  0
  3  4  1  0
  3  6  2  0
  4  5  1  0
  6  7  1  0
  7 15  1  0
  7  8  1  0
 11 12  1  0
 12 28  1  0
 12 27  1  0
 12 26  1  0
 15 16  1  0
 15 25  2  0
 16 17  1  0
 17 18  1  0
 18 19  1  0
 18 29  1  0
 18 30  1  0
 29 31  2  3
 31 32  1  0
 32 33  1  0
 33 34  1  0
 33 35  1  0
  8  9  2  0
  9 10  1  0
 10 11  2  0
 11 13  1  0
 13 14  2  0
 14  8  1  0
 19 20  2  0
 20 21  1  0
 21 22  2  0
 22 23  1  0
 23 24  2  0
 24 19  1  0
M  END

$$$$
No_128-gen_results_new/Mpro_new_generate_500/2024-01-19-21-58-56/
     RDKit          3D

 35 37  0  0  0  0  0  0  0  0999 V2000
   -9.1300   -2.9100    0.4520 O   0  0  0  0  0  0  0  0  0  0  0  0
  -10.2490   -2.6420    0.1800 C   0  0  0  0  0  0  0  0  0  0  0  0
  -11.3800   -3.0650    1.0860 C   0  0  0  0  0  0  0  0  0  0  0  0
  -11.2000   -3.8390    2.3880 C   0  0  0  0  0  0  0  0  0  0  0  0
  -10.9900   -5.0690    2.3420 N   0  0  0  0  0  0  0  0  0  0  0  0
  -12.7310   -2.7290    0.7330 N   0  0  0  0  0  0  0  0  0  0  0  0
  -12.9960   -1.9940   -0.4510 N   0  0  0  0  0  0  0  0  0  0  0  0
  -14.3580   -1.6940   -0.7530 C   0  0  0  0  0  0  0  0  0  0  0  0
  -15.0390   -0.7180   -0.0560 C   0  0  0  0  0  0  0  0  0  0  0  0
  -16.3510   -0.4690   -0.3980 C   0  0  0  0  0  0  0  0  0  0  0  0
  -16.9430   -1.2030   -1.4080 C   0  0  0  0  0  0  0  0  0  0  0  0
  -18.3840   -0.9560   -1.8060 C   0  0  0  0  0  0  0  0  0  0  0  0
  -16.2510   -2.1690   -2.1000 C   0  0  0  0  0  0  0  0  0  0  0  0
  -14.9490   -2.4160   -1.7590 C   0  0  0  0  0  0  0  0  0  0  0  0
  -11.9050   -1.5730   -1.3540 C   0  0  0  0  0  0  0  0  0  0  0  0
  -10.5280   -1.9050   -1.0240 N   0  0  0  0  0  0  0  0  0  0  0  0
   -9.4550   -1.4720   -1.9190 C   0  0  0  0  0  0  0  0  0  0  0  0
   -9.2820   -2.3940   -3.1270 C   0  0  0  0  0  0  0  0  0  0  0  0
   -7.8170   -2.5500   -3.5360 C   0  0  0  0  0  0  0  0  0  0  0  0
   -6.9720   -3.3210   -2.7550 C   0  0  0  0  0  0  0  0  0  0  0  0
   -5.6390   -3.4770   -3.1110 C   0  0  0  0  0  0  0  0  0  0  0  0
   -5.1940   -2.8390   -4.2640 C   0  0  0  0  0  0  0  0  0  0  0  0
   -6.0850   -2.0780   -5.0070 C   0  0  0  0  0  0  0  0  0  0  0  0
   -7.3470   -1.9600   -4.6270 N   0  0  0  0  0  0  0  0  0  0  0  0
  -12.1450   -0.9640   -2.3390 O   0  0  0  0  0  0  0  0  0  0  0  0
  -18.7610   -1.8760   -2.7390 F   0  0  0  0  0  0  0  0  0  0  0  0
  -18.4550    0.3250   -2.2750 F   0  0  0  0  0  0  0  0  0  0  0  0
  -19.1950   -1.1300   -0.7370 F   0  0  0  0  0  0  0  0  0  0  0  0
  -10.0453   -2.0069   -4.3181 C   0  0  0  0  0  0  0  0  0  0  0  0
   -9.8029   -3.7797   -2.8149 O   0  0  0  0  0  0  0  0  0  0  0  0
  -11.0026   -3.0800   -4.9166 C   0  0  0  0  0  0  0  0  0  0  0  0
  -11.4917   -3.8260   -4.1213 O   0  0  0  0  0  0  0  0  0  0  0  0
  -10.5701   -4.6429   -2.5065 C   0  0  0  0  0  0  0  0  0  0  0  0
  -11.8278   -5.1818   -4.6317 C   0  0  0  0  0  0  0  0  0  0  0  0
  -11.2319   -5.1497   -1.7663 O   0  0  0  0  0  0  0  0  0  0  0  0
  1  2  2  0
  2  3  1  0
  2 16  1  0
  3  4  1  0
  3  6  2  0
  4  5  1  0
  6  7  1  0
  7 15  1  0
  7  8  1  0
 11 12  1  0
 12 28  1  0
 12 27  1  0
 12 26  1  0
 15 16  1  0
 15 25  2  0
 16 17  1  0
 17 18  1  0
 18 19  1  0
 18 29  1  0
 18 30  1  0
 29 31  1  0
 31 32  1  0
 30 33  1  0
 32 34  1  0
 33 35  2  0
  8  9  2  0
  9 10  1  0
 10 11  2  0
 11 13  1  0
 13 14  2  0
 14  8  1  0
 19 20  2  0
 20 21  1  0
 21 22  2  0
 22 23  1  0
 23 24  2  0
 24 19  1  0
M  END

$$$$
No_129-gen_results_new/Mpro_new_generate_500/2024-01-19-21-58-56/
     RDKit          3D

 32 34  0  0  0  0  0  0  0  0999 V2000
   -9.1300   -2.9100    0.4520 O   0  0  0  0  0  0  0  0  0  0  0  0
  -10.2490   -2.6420    0.1800 C   0  0  0  0  0  0  0  0  0  0  0  0
  -11.3800   -3.0650    1.0860 C   0  0  0  0  0  0  0  0  0  0  0  0
  -11.2000   -3.8390    2.3880 C   0  0  0  0  0  0  0  0  0  0  0  0
  -10.9900   -5.0690    2.3420 N   0  0  0  0  0  0  0  0  0  0  0  0
  -12.7310   -2.7290    0.7330 N   0  0  0  0  0  0  0  0  0  0  0  0
  -12.9960   -1.9940   -0.4510 N   0  0  0  0  0  0  0  0  0  0  0  0
  -14.3580   -1.6940   -0.7530 C   0  0  0  0  0  0  0  0  0  0  0  0
  -15.0390   -0.7180   -0.0560 C   0  0  0  0  0  0  0  0  0  0  0  0
  -16.3510   -0.4690   -0.3980 C   0  0  0  0  0  0  0  0  0  0  0  0
  -16.9430   -1.2030   -1.4080 C   0  0  0  0  0  0  0  0  0  0  0  0
  -18.3840   -0.9560   -1.8060 C   0  0  0  0  0  0  0  0  0  0  0  0
  -16.2510   -2.1690   -2.1000 C   0  0  0  0  0  0  0  0  0  0  0  0
  -14.9490   -2.4160   -1.7590 C   0  0  0  0  0  0  0  0  0  0  0  0
  -11.9050   -1.5730   -1.3540 C   0  0  0  0  0  0  0  0  0  0  0  0
  -10.5280   -1.9050   -1.0240 N   0  0  0  0  0  0  0  0  0  0  0  0
   -9.4550   -1.4720   -1.9190 C   0  0  0  0  0  0  0  0  0  0  0  0
   -9.2820   -2.3940   -3.1270 C   0  0  0  0  0  0  0  0  0  0  0  0
   -7.8170   -2.5500   -3.5360 C   0  0  0  0  0  0  0  0  0  0  0  0
   -6.9720   -3.3210   -2.7550 C   0  0  0  0  0  0  0  0  0  0  0  0
   -5.6390   -3.4770   -3.1110 C   0  0  0  0  0  0  0  0  0  0  0  0
   -5.1940   -2.8390   -4.2640 C   0  0  0  0  0  0  0  0  0  0  0  0
   -6.0850   -2.0780   -5.0070 C   0  0  0  0  0  0  0  0  0  0  0  0
   -7.3470   -1.9600   -4.6270 N   0  0  0  0  0  0  0  0  0  0  0  0
  -12.1450   -0.9640   -2.3390 O   0  0  0  0  0  0  0  0  0  0  0  0
  -18.7610   -1.8760   -2.7390 F   0  0  0  0  0  0  0  0  0  0  0  0
  -18.4550    0.3250   -2.2750 F   0  0  0  0  0  0  0  0  0  0  0  0
  -19.1950   -1.1300   -0.7370 F   0  0  0  0  0  0  0  0  0  0  0  0
   -9.6560   -3.6380   -2.7665 F   0  0  0  0  0  0  0  0  0  0  0  0
  -10.0460   -1.9845   -4.1698 F   0  0  0  0  0  0  0  0  0  0  0  0
  -16.7841   -3.0194   -3.1226 O   0  0  0  0  0  0  0  0  0  0  0  0
  -17.1300   -2.7849   -4.2713 C   0  0  0  0  0  0  0  0  0  0  0  0
  1  2  2  0
  2  3  1  0
  2 16  1  0
  3  4  1  0
  3  6  2  0
  4  5  1  0
  6  7  1  0
  7 15  1  0
  7  8  1  0
 11 12  1  0
 12 28  1  0
 12 27  1  0
 12 26  1  0
 15 16  1  0
 15 25  2  0
 16 17  1  0
 17 18  1  0
 18 19  1  0
 18 29  1  0
 18 30  1  0
 13 31  1  0
 31 32  1  0
  8  9  2  0
  9 10  1  0
 10 11  2  0
 11 13  1  0
 13 14  2  0
 14  8  1  0
 19 20  2  0
 20 21  1  0
 21 22  2  0
 22 23  1  0
 23 24  2  0
 24 19  1  0
M  END

$$$$
No_130-gen_results_new/Mpro_new_generate_500/2024-01-19-21-58-56/
     RDKit          3D

 35 37  0  0  0  0  0  0  0  0999 V2000
   -9.1300   -2.9100    0.4520 O   0  0  0  0  0  0  0  0  0  0  0  0
  -10.2490   -2.6420    0.1800 C   0  0  0  0  0  0  0  0  0  0  0  0
  -11.3800   -3.0650    1.0860 C   0  0  0  0  0  0  0  0  0  0  0  0
  -11.2000   -3.8390    2.3880 C   0  0  0  0  0  0  0  0  0  0  0  0
  -10.9900   -5.0690    2.3420 N   0  0  0  0  0  0  0  0  0  0  0  0
  -12.7310   -2.7290    0.7330 N   0  0  0  0  0  0  0  0  0  0  0  0
  -12.9960   -1.9940   -0.4510 N   0  0  0  0  0  0  0  0  0  0  0  0
  -14.3580   -1.6940   -0.7530 C   0  0  0  0  0  0  0  0  0  0  0  0
  -15.0390   -0.7180   -0.0560 C   0  0  0  0  0  0  0  0  0  0  0  0
  -16.3510   -0.4690   -0.3980 C   0  0  0  0  0  0  0  0  0  0  0  0
  -16.9430   -1.2030   -1.4080 C   0  0  0  0  0  0  0  0  0  0  0  0
  -18.3840   -0.9560   -1.8060 C   0  0  0  0  0  0  0  0  0  0  0  0
  -16.2510   -2.1690   -2.1000 C   0  0  0  0  0  0  0  0  0  0  0  0
  -14.9490   -2.4160   -1.7590 C   0  0  0  0  0  0  0  0  0  0  0  0
  -11.9050   -1.5730   -1.3540 C   0  0  0  0  0  0  0  0  0  0  0  0
  -10.5280   -1.9050   -1.0240 N   0  0  0  0  0  0  0  0  0  0  0  0
   -9.4550   -1.4720   -1.9190 C   0  0  0  0  0  0  0  0  0  0  0  0
   -9.2820   -2.3940   -3.1270 C   0  0  0  0  0  0  0  0  0  0  0  0
   -7.8170   -2.5500   -3.5360 C   0  0  0  0  0  0  0  0  0  0  0  0
   -6.9720   -3.3210   -2.7550 C   0  0  0  0  0  0  0  0  0  0  0  0
   -5.6390   -3.4770   -3.1110 C   0  0  0  0  0  0  0  0  0  0  0  0
   -5.1940   -2.8390   -4.2640 C   0  0  0  0  0  0  0  0  0  0  0  0
   -6.0850   -2.0780   -5.0070 C   0  0  0  0  0  0  0  0  0  0  0  0
   -7.3470   -1.9600   -4.6270 N   0  0  0  0  0  0  0  0  0  0  0  0
  -12.1450   -0.9640   -2.3390 O   0  0  0  0  0  0  0  0  0  0  0  0
  -18.7610   -1.8760   -2.7390 F   0  0  0  0  0  0  0  0  0  0  0  0
  -18.4550    0.3250   -2.2750 F   0  0  0  0  0  0  0  0  0  0  0  0
  -19.1950   -1.1300   -0.7370 F   0  0  0  0  0  0  0  0  0  0  0  0
   -9.7920   -3.7475   -2.8656 C   0  0  0  0  0  0  0  0  0  0  0  0
  -10.1387   -2.0206   -4.2903 C   0  0  0  0  0  0  0  0  0  0  0  0
  -10.1257   -4.6809   -3.9732 C   0  0  0  0  0  0  0  0  0  0  0  0
  -10.4412   -6.0367   -3.7326 C   0  0  0  0  0  0  0  0  0  0  0  0
   -9.9965   -6.3271   -2.2657 C   0  0  0  0  0  0  0  0  0  0  0  0
   -9.9930   -7.3730   -1.8440 O   0  0  0  0  0  0  0  0  0  0  0  0
   -9.5077   -5.2707   -1.4053 N   0  0  0  0  0  0  0  0  0  0  0  0
  1  2  2  0
  2  3  1  0
  2 16  1  0
  3  4  1  0
  3  6  2  0
  4  5  1  0
  6  7  1  0
  7 15  1  0
  7  8  1  0
 11 12  1  0
 12 28  1  0
 12 27  1  0
 12 26  1  0
 15 16  1  0
 15 25  2  0
 16 17  1  0
 17 18  1  0
 18 19  1  0
 18 29  1  0
 18 30  1  0
 29 31  2  3
 31 32  1  0
 32 33  1  0
 33 34  2  0
 33 35  1  0
  8  9  2  0
  9 10  1  0
 10 11  2  0
 11 13  1  0
 13 14  2  0
 14  8  1  0
 19 20  2  0
 20 21  1  0
 21 22  2  0
 22 23  1  0
 23 24  2  0
 24 19  1  0
M  END

$$$$
No_131-gen_results_new/Mpro_new_generate_500/2024-01-19-21-58-56/
     RDKit          3D

 35 38  0  0  0  0  0  0  0  0999 V2000
   -9.1300   -2.9100    0.4520 O   0  0  0  0  0  0  0  0  0  0  0  0
  -10.2490   -2.6420    0.1800 C   0  0  0  0  0  0  0  0  0  0  0  0
  -11.3800   -3.0650    1.0860 C   0  0  0  0  0  0  0  0  0  0  0  0
  -11.2000   -3.8390    2.3880 C   0  0  0  0  0  0  0  0  0  0  0  0
  -10.9900   -5.0690    2.3420 N   0  0  0  0  0  0  0  0  0  0  0  0
  -12.7310   -2.7290    0.7330 N   0  0  0  0  0  0  0  0  0  0  0  0
  -12.9960   -1.9940   -0.4510 N   0  0  0  0  0  0  0  0  0  0  0  0
  -14.3580   -1.6940   -0.7530 C   0  0  0  0  0  0  0  0  0  0  0  0
  -15.0390   -0.7180   -0.0560 C   0  0  0  0  0  0  0  0  0  0  0  0
  -16.3510   -0.4690   -0.3980 C   0  0  0  0  0  0  0  0  0  0  0  0
  -16.9430   -1.2030   -1.4080 C   0  0  0  0  0  0  0  0  0  0  0  0
  -18.3840   -0.9560   -1.8060 C   0  0  0  0  0  0  0  0  0  0  0  0
  -16.2510   -2.1690   -2.1000 C   0  0  0  0  0  0  0  0  0  0  0  0
  -14.9490   -2.4160   -1.7590 C   0  0  0  0  0  0  0  0  0  0  0  0
  -11.9050   -1.5730   -1.3540 C   0  0  0  0  0  0  0  0  0  0  0  0
  -10.5280   -1.9050   -1.0240 N   0  0  0  0  0  0  0  0  0  0  0  0
   -9.4550   -1.4720   -1.9190 C   0  0  0  0  0  0  0  0  0  0  0  0
   -9.2820   -2.3940   -3.1270 C   0  0  0  0  0  0  0  0  0  0  0  0
   -7.8170   -2.5500   -3.5360 C   0  0  0  0  0  0  0  0  0  0  0  0
   -6.9720   -3.3210   -2.7550 C   0  0  0  0  0  0  0  0  0  0  0  0
   -5.6390   -3.4770   -3.1110 C   0  0  0  0  0  0  0  0  0  0  0  0
   -5.1940   -2.8390   -4.2640 C   0  0  0  0  0  0  0  0  0  0  0  0
   -6.0850   -2.0780   -5.0070 C   0  0  0  0  0  0  0  0  0  0  0  0
   -7.3470   -1.9600   -4.6270 N   0  0  0  0  0  0  0  0  0  0  0  0
  -12.1450   -0.9640   -2.3390 O   0  0  0  0  0  0  0  0  0  0  0  0
  -18.7610   -1.8760   -2.7390 F   0  0  0  0  0  0  0  0  0  0  0  0
  -18.4550    0.3250   -2.2750 F   0  0  0  0  0  0  0  0  0  0  0  0
  -19.1950   -1.1300   -0.7370 F   0  0  0  0  0  0  0  0  0  0  0  0
   -9.7920   -3.7475   -2.8656 C   0  0  0  0  0  0  0  0  0  0  0  0
  -10.0717   -1.8029   -4.3549 C   0  0  0  0  0  0  0  0  0  0  0  0
  -10.0419   -4.6597   -4.1091 C   0  0  0  0  0  0  0  0  0  0  0  0
  -10.3271   -4.0944   -5.2068 O   0  0  0  0  0  0  0  0  0  0  0  0
  -10.6195   -2.6984   -5.2717 C   0  0  0  0  0  0  0  0  0  0  0  0
  -11.1258   -2.2457   -6.4306 O   0  0  0  0  0  0  0  0  0  0  0  0
   -9.9757   -5.8942   -3.9977 F   0  0  0  0  0  0  0  0  0  0  0  0
  1  2  2  0
  2  3  1  0
  2 16  1  0
  3  4  1  0
  3  6  2  0
  4  5  1  0
  6  7  1  0
  7 15  1  0
  7  8  1  0
 11 12  1  0
 12 28  1  0
 12 27  1  0
 12 26  1  0
 15 16  1  0
 15 25  2  0
 16 17  1  0
 17 18  1  0
 18 19  1  0
 18 29  1  0
 18 30  1  0
 29 31  2  0
 31 32  1  0
 30 33  1  0
 32 33  1  0
 33 34  2  0
 31 35  1  0
  8  9  2  0
  9 10  1  0
 10 11  2  0
 11 13  1  0
 13 14  2  0
 14  8  1  0
 19 20  2  0
 20 21  1  0
 21 22  2  0
 22 23  1  0
 23 24  2  0
 24 19  1  0
M  END

$$$$
No_132-gen_results_new/Mpro_new_generate_500/2024-01-19-21-58-56/
     RDKit          3D

 35 37  0  0  0  0  0  0  0  0999 V2000
   -9.1300   -2.9100    0.4520 O   0  0  0  0  0  0  0  0  0  0  0  0
  -10.2490   -2.6420    0.1800 C   0  0  0  0  0  0  0  0  0  0  0  0
  -11.3800   -3.0650    1.0860 C   0  0  0  0  0  0  0  0  0  0  0  0
  -11.2000   -3.8390    2.3880 C   0  0  0  0  0  0  0  0  0  0  0  0
  -10.9900   -5.0690    2.3420 N   0  0  0  0  0  0  0  0  0  0  0  0
  -12.7310   -2.7290    0.7330 N   0  0  0  0  0  0  0  0  0  0  0  0
  -12.9960   -1.9940   -0.4510 N   0  0  0  0  0  0  0  0  0  0  0  0
  -14.3580   -1.6940   -0.7530 C   0  0  0  0  0  0  0  0  0  0  0  0
  -15.0390   -0.7180   -0.0560 C   0  0  0  0  0  0  0  0  0  0  0  0
  -16.3510   -0.4690   -0.3980 C   0  0  0  0  0  0  0  0  0  0  0  0
  -16.9430   -1.2030   -1.4080 C   0  0  0  0  0  0  0  0  0  0  0  0
  -18.3840   -0.9560   -1.8060 C   0  0  0  0  0  0  0  0  0  0  0  0
  -16.2510   -2.1690   -2.1000 C   0  0  0  0  0  0  0  0  0  0  0  0
  -14.9490   -2.4160   -1.7590 C   0  0  0  0  0  0  0  0  0  0  0  0
  -11.9050   -1.5730   -1.3540 C   0  0  0  0  0  0  0  0  0  0  0  0
  -10.5280   -1.9050   -1.0240 N   0  0  0  0  0  0  0  0  0  0  0  0
   -9.4550   -1.4720   -1.9190 C   0  0  0  0  0  0  0  0  0  0  0  0
   -9.2820   -2.3940   -3.1270 C   0  0  0  0  0  0  0  0  0  0  0  0
   -7.8170   -2.5500   -3.5360 C   0  0  0  0  0  0  0  0  0  0  0  0
   -6.9720   -3.3210   -2.7550 C   0  0  0  0  0  0  0  0  0  0  0  0
   -5.6390   -3.4770   -3.1110 C   0  0  0  0  0  0  0  0  0  0  0  0
   -5.1940   -2.8390   -4.2640 C   0  0  0  0  0  0  0  0  0  0  0  0
   -6.0850   -2.0780   -5.0070 C   0  0  0  0  0  0  0  0  0  0  0  0
   -7.3470   -1.9600   -4.6270 N   0  0  0  0  0  0  0  0  0  0  0  0
  -12.1450   -0.9640   -2.3390 O   0  0  0  0  0  0  0  0  0  0  0  0
  -18.7610   -1.8760   -2.7390 F   0  0  0  0  0  0  0  0  0  0  0  0
  -18.4550    0.3250   -2.2750 F   0  0  0  0  0  0  0  0  0  0  0  0
  -19.1950   -1.1300   -0.7370 F   0  0  0  0  0  0  0  0  0  0  0  0
  -10.0453   -2.0069   -4.3181 C   0  0  0  0  0  0  0  0  0  0  0  0
   -9.8476   -3.8948   -2.8015 C   0  0  0  0  0  0  0  0  0  0  0  0
  -10.9871   -4.2370   -3.4678 C   0  0  0  0  0  0  0  0  0  0  0  0
  -10.9887   -4.6095   -4.4138 C   0  0  0  0  0  0  0  0  0  0  0  0
  -12.2715   -5.4253   -5.0618 C   0  0  0  0  0  0  0  0  0  0  0  0
  -13.2667   -5.5912   -4.2447 O   0  0  0  0  0  0  0  0  0  0  0  0
  -13.2087   -5.2042   -2.9059 C   0  0  0  0  0  0  0  0  0  0  0  0
  1  2  2  0
  2  3  1  0
  2 16  1  0
  3  4  1  0
  3  6  2  0
  4  5  1  0
  6  7  1  0
  7 15  1  0
  7  8  1  0
 11 12  1  0
 12 28  1  0
 12 27  1  0
 12 26  1  0
 15 16  1  0
 15 25  2  0
 16 17  1  0
 17 18  1  0
 18 19  1  0
 18 29  1  0
 18 30  1  0
 30 31  1  0
 31 32  2  3
 32 33  1  0
 33 34  1  0
 34 35  1  0
  8  9  2  0
  9 10  1  0
 10 11  2  0
 11 13  1  0
 13 14  2  0
 14  8  1  0
 19 20  2  0
 20 21  1  0
 21 22  2  0
 22 23  1  0
 23 24  2  0
 24 19  1  0
M  END

$$$$
No_133-gen_results_new/Mpro_new_generate_500/2024-01-19-21-58-56/
     RDKit          3D

 33 36  0  0  0  0  0  0  0  0999 V2000
   -9.1300   -2.9100    0.4520 O   0  0  0  0  0  0  0  0  0  0  0  0
  -10.2490   -2.6420    0.1800 C   0  0  0  0  0  0  0  0  0  0  0  0
  -11.3800   -3.0650    1.0860 C   0  0  0  0  0  0  0  0  0  0  0  0
  -11.2000   -3.8390    2.3880 C   0  0  0  0  0  0  0  0  0  0  0  0
  -10.9900   -5.0690    2.3420 N   0  0  0  0  0  0  0  0  0  0  0  0
  -12.7310   -2.7290    0.7330 N   0  0  0  0  0  0  0  0  0  0  0  0
  -12.9960   -1.9940   -0.4510 N   0  0  0  0  0  0  0  0  0  0  0  0
  -14.3580   -1.6940   -0.7530 C   0  0  0  0  0  0  0  0  0  0  0  0
  -15.0390   -0.7180   -0.0560 C   0  0  0  0  0  0  0  0  0  0  0  0
  -16.3510   -0.4690   -0.3980 C   0  0  0  0  0  0  0  0  0  0  0  0
  -16.9430   -1.2030   -1.4080 C   0  0  0  0  0  0  0  0  0  0  0  0
  -18.3840   -0.9560   -1.8060 C   0  0  0  0  0  0  0  0  0  0  0  0
  -16.2510   -2.1690   -2.1000 C   0  0  0  0  0  0  0  0  0  0  0  0
  -14.9490   -2.4160   -1.7590 C   0  0  0  0  0  0  0  0  0  0  0  0
  -11.9050   -1.5730   -1.3540 C   0  0  0  0  0  0  0  0  0  0  0  0
  -10.5280   -1.9050   -1.0240 N   0  0  0  0  0  0  0  0  0  0  0  0
   -9.4550   -1.4720   -1.9190 C   0  0  0  0  0  0  0  0  0  0  0  0
   -9.2820   -2.3940   -3.1270 C   0  0  0  0  0  0  0  0  0  0  0  0
   -7.8170   -2.5500   -3.5360 C   0  0  0  0  0  0  0  0  0  0  0  0
   -6.9720   -3.3210   -2.7550 C   0  0  0  0  0  0  0  0  0  0  0  0
   -5.6390   -3.4770   -3.1110 C   0  0  0  0  0  0  0  0  0  0  0  0
   -5.1940   -2.8390   -4.2640 C   0  0  0  0  0  0  0  0  0  0  0  0
   -6.0850   -2.0780   -5.0070 C   0  0  0  0  0  0  0  0  0  0  0  0
   -7.3470   -1.9600   -4.6270 N   0  0  0  0  0  0  0  0  0  0  0  0
  -12.1450   -0.9640   -2.3390 O   0  0  0  0  0  0  0  0  0  0  0  0
  -18.7610   -1.8760   -2.7390 F   0  0  0  0  0  0  0  0  0  0  0  0
  -18.4550    0.3250   -2.2750 F   0  0  0  0  0  0  0  0  0  0  0  0
  -19.1950   -1.1300   -0.7370 F   0  0  0  0  0  0  0  0  0  0  0  0
  -10.0453   -2.0069   -4.3181 C   0  0  0  0  0  0  0  0  0  0  0  0
   -9.8476   -3.8948   -2.8015 C   0  0  0  0  0  0  0  0  0  0  0  0
  -10.9871   -4.2370   -3.4678 C   0  0  0  0  0  0  0  0  0  0  0  0
  -11.0932   -2.9485   -4.4299 C   0  0  0  0  0  0  0  0  0  0  0  0
   -9.9937   -0.9959   -5.0580 O   0  0  0  0  0  0  0  0  0  0  0  0
  1  2  2  0
  2  3  1  0
  2 16  1  0
  3  4  1  0
  3  6  2  0
  4  5  1  0
  6  7  1  0
  7 15  1  0
  7  8  1  0
 11 12  1  0
 12 28  1  0
 12 27  1  0
 12 26  1  0
 15 16  1  0
 15 25  2  0
 16 17  1  0
 17 18  1  0
 18 19  1  0
 18 29  1  0
 18 30  1  0
 30 31  1  0
 29 32  1  0
 31 32  2  0
 29 33  2  0
  8  9  2  0
  9 10  1  0
 10 11  2  0
 11 13  1  0
 13 14  2  0
 14  8  1  0
 19 20  2  0
 20 21  1  0
 21 22  2  0
 22 23  1  0
 23 24  2  0
 24 19  1  0
M  END

$$$$
No_134-gen_results_new/Mpro_new_generate_500/2024-01-19-21-58-56/
     RDKit          3D

 35 38  0  0  0  0  0  0  0  0999 V2000
   -9.1300   -2.9100    0.4520 O   0  0  0  0  0  0  0  0  0  0  0  0
  -10.2490   -2.6420    0.1800 C   0  0  0  0  0  0  0  0  0  0  0  0
  -11.3800   -3.0650    1.0860 C   0  0  0  0  0  0  0  0  0  0  0  0
  -11.2000   -3.8390    2.3880 C   0  0  0  0  0  0  0  0  0  0  0  0
  -10.9900   -5.0690    2.3420 N   0  0  0  0  0  0  0  0  0  0  0  0
  -12.7310   -2.7290    0.7330 N   0  0  0  0  0  0  0  0  0  0  0  0
  -12.9960   -1.9940   -0.4510 N   0  0  0  0  0  0  0  0  0  0  0  0
  -14.3580   -1.6940   -0.7530 C   0  0  0  0  0  0  0  0  0  0  0  0
  -15.0390   -0.7180   -0.0560 C   0  0  0  0  0  0  0  0  0  0  0  0
  -16.3510   -0.4690   -0.3980 C   0  0  0  0  0  0  0  0  0  0  0  0
  -16.9430   -1.2030   -1.4080 C   0  0  0  0  0  0  0  0  0  0  0  0
  -18.3840   -0.9560   -1.8060 C   0  0  0  0  0  0  0  0  0  0  0  0
  -16.2510   -2.1690   -2.1000 C   0  0  0  0  0  0  0  0  0  0  0  0
  -14.9490   -2.4160   -1.7590 C   0  0  0  0  0  0  0  0  0  0  0  0
  -11.9050   -1.5730   -1.3540 C   0  0  0  0  0  0  0  0  0  0  0  0
  -10.5280   -1.9050   -1.0240 N   0  0  0  0  0  0  0  0  0  0  0  0
   -9.4550   -1.4720   -1.9190 C   0  0  0  0  0  0  0  0  0  0  0  0
   -9.2820   -2.3940   -3.1270 C   0  0  0  0  0  0  0  0  0  0  0  0
   -7.8170   -2.5500   -3.5360 C   0  0  0  0  0  0  0  0  0  0  0  0
   -6.9720   -3.3210   -2.7550 C   0  0  0  0  0  0  0  0  0  0  0  0
   -5.6390   -3.4770   -3.1110 C   0  0  0  0  0  0  0  0  0  0  0  0
   -5.1940   -2.8390   -4.2640 C   0  0  0  0  0  0  0  0  0  0  0  0
   -6.0850   -2.0780   -5.0070 C   0  0  0  0  0  0  0  0  0  0  0  0
   -7.3470   -1.9600   -4.6270 N   0  0  0  0  0  0  0  0  0  0  0  0
  -12.1450   -0.9640   -2.3390 O   0  0  0  0  0  0  0  0  0  0  0  0
  -18.7610   -1.8760   -2.7390 F   0  0  0  0  0  0  0  0  0  0  0  0
  -18.4550    0.3250   -2.2750 F   0  0  0  0  0  0  0  0  0  0  0  0
  -19.1950   -1.1300   -0.7370 F   0  0  0  0  0  0  0  0  0  0  0  0
   -9.7920   -3.7475   -2.8656 C   0  0  0  0  0  0  0  0  0  0  0  0
  -10.1112   -2.1676   -4.1288 O   0  0  0  0  0  0  0  0  0  0  0  0
  -10.9497   -3.1465   -4.8669 C   0  0  0  0  0  0  0  0  0  0  0  0
  -10.7072   -4.3469   -4.0155 C   0  0  0  0  0  0  0  0  0  0  0  0
  -11.9844   -4.8202   -3.5069 O   0  0  0  0  0  0  0  0  0  0  0  0
  -12.8273   -5.6136   -4.1802 C   0  0  0  0  0  0  0  0  0  0  0  0
  -14.0998   -5.8975   -3.3201 C   0  0  0  0  0  0  0  0  0  0  0  0
  1  2  2  0
  2  3  1  0
  2 16  1  0
  3  4  1  0
  3  6  2  0
  4  5  1  0
  6  7  1  0
  7 15  1  0
  7  8  1  0
 11 12  1  0
 12 28  1  0
 12 27  1  0
 12 26  1  0
 15 16  1  0
 15 25  2  0
 16 17  1  0
 17 18  1  0
 18 19  1  0
 18 29  1  0
 18 30  1  0
 30 31  1  0
 29 32  1  0
 31 32  1  0
 32 33  1  0
 33 34  1  0
 34 35  1  0
  8  9  2  0
  9 10  1  0
 10 11  2  0
 11 13  1  0
 13 14  2  0
 14  8  1  0
 19 20  2  0
 20 21  1  0
 21 22  2  0
 22 23  1  0
 23 24  2  0
 24 19  1  0
M  END

$$$$
No_135-gen_results_new/Mpro_new_generate_500/2024-01-19-21-58-56/
     RDKit          3D

 35 38  0  0  0  0  0  0  0  0999 V2000
   -9.1300   -2.9100    0.4520 O   0  0  0  0  0  0  0  0  0  0  0  0
  -10.2490   -2.6420    0.1800 C   0  0  0  0  0  0  0  0  0  0  0  0
  -11.3800   -3.0650    1.0860 C   0  0  0  0  0  0  0  0  0  0  0  0
  -11.2000   -3.8390    2.3880 C   0  0  0  0  0  0  0  0  0  0  0  0
  -10.9900   -5.0690    2.3420 N   0  0  0  0  0  0  0  0  0  0  0  0
  -12.7310   -2.7290    0.7330 N   0  0  0  0  0  0  0  0  0  0  0  0
  -12.9960   -1.9940   -0.4510 N   0  0  0  0  0  0  0  0  0  0  0  0
  -14.3580   -1.6940   -0.7530 C   0  0  0  0  0  0  0  0  0  0  0  0
  -15.0390   -0.7180   -0.0560 C   0  0  0  0  0  0  0  0  0  0  0  0
  -16.3510   -0.4690   -0.3980 C   0  0  0  0  0  0  0  0  0  0  0  0
  -16.9430   -1.2030   -1.4080 C   0  0  0  0  0  0  0  0  0  0  0  0
  -18.3840   -0.9560   -1.8060 C   0  0  0  0  0  0  0  0  0  0  0  0
  -16.2510   -2.1690   -2.1000 C   0  0  0  0  0  0  0  0  0  0  0  0
  -14.9490   -2.4160   -1.7590 C   0  0  0  0  0  0  0  0  0  0  0  0
  -11.9050   -1.5730   -1.3540 C   0  0  0  0  0  0  0  0  0  0  0  0
  -10.5280   -1.9050   -1.0240 N   0  0  0  0  0  0  0  0  0  0  0  0
   -9.4550   -1.4720   -1.9190 C   0  0  0  0  0  0  0  0  0  0  0  0
   -9.2820   -2.3940   -3.1270 C   0  0  0  0  0  0  0  0  0  0  0  0
   -7.8170   -2.5500   -3.5360 C   0  0  0  0  0  0  0  0  0  0  0  0
   -6.9720   -3.3210   -2.7550 C   0  0  0  0  0  0  0  0  0  0  0  0
   -5.6390   -3.4770   -3.1110 C   0  0  0  0  0  0  0  0  0  0  0  0
   -5.1940   -2.8390   -4.2640 C   0  0  0  0  0  0  0  0  0  0  0  0
   -6.0850   -2.0780   -5.0070 C   0  0  0  0  0  0  0  0  0  0  0  0
   -7.3470   -1.9600   -4.6270 N   0  0  0  0  0  0  0  0  0  0  0  0
  -12.1450   -0.9640   -2.3390 O   0  0  0  0  0  0  0  0  0  0  0  0
  -18.7610   -1.8760   -2.7390 F   0  0  0  0  0  0  0  0  0  0  0  0
  -18.4550    0.3250   -2.2750 F   0  0  0  0  0  0  0  0  0  0  0  0
  -19.1950   -1.1300   -0.7370 F   0  0  0  0  0  0  0  0  0  0  0  0
  -10.0453   -2.0069   -4.3181 C   0  0  0  0  0  0  0  0  0  0  0  0
   -9.8476   -3.8948   -2.8015 C   0  0  0  0  0  0  0  0  0  0  0  0
  -10.1714   -4.7331   -3.9309 C   0  0  0  0  0  0  0  0  0  0  0  0
  -10.1706   -6.0308   -3.5979 O   0  0  0  0  0  0  0  0  0  0  0  0
   -9.4459   -6.4041   -2.5012 C   0  0  0  0  0  0  0  0  0  0  0  0
   -9.2880   -5.1443   -1.6414 C   0  0  0  0  0  0  0  0  0  0  0  0
   -7.9743   -6.9225   -2.5511 C   0  0  0  0  0  0  0  0  0  0  0  0
  1  2  2  0
  2  3  1  0
  2 16  1  0
  3  4  1  0
  3  6  2  0
  4  5  1  0
  6  7  1  0
  7 15  1  0
  7  8  1  0
 11 12  1  0
 12 28  1  0
 12 27  1  0
 12 26  1  0
 15 16  1  0
 15 25  2  0
 16 17  1  0
 17 18  1  0
 18 19  1  0
 18 29  1  0
 18 30  1  0
 30 31  2  0
 31 32  1  0
 32 33  1  0
 30 34  1  0
 33 34  1  0
 33 35  1  0
  8  9  2  0
  9 10  1  0
 10 11  2  0
 11 13  1  0
 13 14  2  0
 14  8  1  0
 19 20  2  0
 20 21  1  0
 21 22  2  0
 22 23  1  0
 23 24  2  0
 24 19  1  0
M  END

$$$$
No_136-gen_results_new/Mpro_new_generate_500/2024-01-19-21-58-56/
     RDKit          3D

 35 37  0  0  0  0  0  0  0  0999 V2000
   -9.1300   -2.9100    0.4520 O   0  0  0  0  0  0  0  0  0  0  0  0
  -10.2490   -2.6420    0.1800 C   0  0  0  0  0  0  0  0  0  0  0  0
  -11.3800   -3.0650    1.0860 C   0  0  0  0  0  0  0  0  0  0  0  0
  -11.2000   -3.8390    2.3880 C   0  0  0  0  0  0  0  0  0  0  0  0
  -10.9900   -5.0690    2.3420 N   0  0  0  0  0  0  0  0  0  0  0  0
  -12.7310   -2.7290    0.7330 N   0  0  0  0  0  0  0  0  0  0  0  0
  -12.9960   -1.9940   -0.4510 N   0  0  0  0  0  0  0  0  0  0  0  0
  -14.3580   -1.6940   -0.7530 C   0  0  0  0  0  0  0  0  0  0  0  0
  -15.0390   -0.7180   -0.0560 C   0  0  0  0  0  0  0  0  0  0  0  0
  -16.3510   -0.4690   -0.3980 C   0  0  0  0  0  0  0  0  0  0  0  0
  -16.9430   -1.2030   -1.4080 C   0  0  0  0  0  0  0  0  0  0  0  0
  -18.3840   -0.9560   -1.8060 C   0  0  0  0  0  0  0  0  0  0  0  0
  -16.2510   -2.1690   -2.1000 C   0  0  0  0  0  0  0  0  0  0  0  0
  -14.9490   -2.4160   -1.7590 C   0  0  0  0  0  0  0  0  0  0  0  0
  -11.9050   -1.5730   -1.3540 C   0  0  0  0  0  0  0  0  0  0  0  0
  -10.5280   -1.9050   -1.0240 N   0  0  0  0  0  0  0  0  0  0  0  0
   -9.4550   -1.4720   -1.9190 C   0  0  0  0  0  0  0  0  0  0  0  0
   -9.2820   -2.3940   -3.1270 C   0  0  0  0  0  0  0  0  0  0  0  0
   -7.8170   -2.5500   -3.5360 C   0  0  0  0  0  0  0  0  0  0  0  0
   -6.9720   -3.3210   -2.7550 C   0  0  0  0  0  0  0  0  0  0  0  0
   -5.6390   -3.4770   -3.1110 C   0  0  0  0  0  0  0  0  0  0  0  0
   -5.1940   -2.8390   -4.2640 C   0  0  0  0  0  0  0  0  0  0  0  0
   -6.0850   -2.0780   -5.0070 C   0  0  0  0  0  0  0  0  0  0  0  0
   -7.3470   -1.9600   -4.6270 N   0  0  0  0  0  0  0  0  0  0  0  0
  -12.1450   -0.9640   -2.3390 O   0  0  0  0  0  0  0  0  0  0  0  0
  -18.7610   -1.8760   -2.7390 F   0  0  0  0  0  0  0  0  0  0  0  0
  -18.4550    0.3250   -2.2750 F   0  0  0  0  0  0  0  0  0  0  0  0
  -19.1950   -1.1300   -0.7370 F   0  0  0  0  0  0  0  0  0  0  0  0
   -9.7920   -3.7475   -2.8656 C   0  0  0  0  0  0  0  0  0  0  0  0
  -10.0717   -1.8029   -4.3549 C   0  0  0  0  0  0  0  0  0  0  0  0
  -10.0419   -4.6597   -4.1091 C   0  0  0  0  0  0  0  0  0  0  0  0
  -11.0513   -4.6012   -4.7444 C   0  0  0  0  0  0  0  0  0  0  0  0
  -12.2088   -4.3692   -4.2913 F   0  0  0  0  0  0  0  0  0  0  0  0
  -11.1884   -5.1330   -5.9768 F   0  0  0  0  0  0  0  0  0  0  0  0
   -8.9222   -5.5667   -4.5073 C   0  0  0  0  0  0  0  0  0  0  0  0
  1  2  2  0
  2  3  1  0
  2 16  1  0
  3  4  1  0
  3  6  2  0
  4  5  1  0
  6  7  1  0
  7 15  1  0
  7  8  1  0
 11 12  1  0
 12 28  1  0
 12 27  1  0
 12 26  1  0
 15 16  1  0
 15 25  2  0
 16 17  1  0
 17 18  1  0
 18 19  1  0
 18 29  1  0
 18 30  1  0
 29 31  2  3
 31 32  1  0
 32 33  1  0
 32 34  1  0
 31 35  1  0
  8  9  2  0
  9 10  1  0
 10 11  2  0
 11 13  1  0
 13 14  2  0
 14  8  1  0
 19 20  2  0
 20 21  1  0
 21 22  2  0
 22 23  1  0
 23 24  2  0
 24 19  1  0
M  END

$$$$
No_137-gen_results_new/Mpro_new_generate_500/2024-01-19-21-58-56/
     RDKit          3D

 33 35  0  0  0  0  0  0  0  0999 V2000
   -9.1300   -2.9100    0.4520 O   0  0  0  0  0  0  0  0  0  0  0  0
  -10.2490   -2.6420    0.1800 C   0  0  0  0  0  0  0  0  0  0  0  0
  -11.3800   -3.0650    1.0860 C   0  0  0  0  0  0  0  0  0  0  0  0
  -11.2000   -3.8390    2.3880 C   0  0  0  0  0  0  0  0  0  0  0  0
  -10.9900   -5.0690    2.3420 N   0  0  0  0  0  0  0  0  0  0  0  0
  -12.7310   -2.7290    0.7330 N   0  0  0  0  0  0  0  0  0  0  0  0
  -12.9960   -1.9940   -0.4510 N   0  0  0  0  0  0  0  0  0  0  0  0
  -14.3580   -1.6940   -0.7530 C   0  0  0  0  0  0  0  0  0  0  0  0
  -15.0390   -0.7180   -0.0560 C   0  0  0  0  0  0  0  0  0  0  0  0
  -16.3510   -0.4690   -0.3980 C   0  0  0  0  0  0  0  0  0  0  0  0
  -16.9430   -1.2030   -1.4080 C   0  0  0  0  0  0  0  0  0  0  0  0
  -18.3840   -0.9560   -1.8060 C   0  0  0  0  0  0  0  0  0  0  0  0
  -16.2510   -2.1690   -2.1000 C   0  0  0  0  0  0  0  0  0  0  0  0
  -14.9490   -2.4160   -1.7590 C   0  0  0  0  0  0  0  0  0  0  0  0
  -11.9050   -1.5730   -1.3540 C   0  0  0  0  0  0  0  0  0  0  0  0
  -10.5280   -1.9050   -1.0240 N   0  0  0  0  0  0  0  0  0  0  0  0
   -9.4550   -1.4720   -1.9190 C   0  0  0  0  0  0  0  0  0  0  0  0
   -9.2820   -2.3940   -3.1270 C   0  0  0  0  0  0  0  0  0  0  0  0
   -7.8170   -2.5500   -3.5360 C   0  0  0  0  0  0  0  0  0  0  0  0
   -6.9720   -3.3210   -2.7550 C   0  0  0  0  0  0  0  0  0  0  0  0
   -5.6390   -3.4770   -3.1110 C   0  0  0  0  0  0  0  0  0  0  0  0
   -5.1940   -2.8390   -4.2640 C   0  0  0  0  0  0  0  0  0  0  0  0
   -6.0850   -2.0780   -5.0070 C   0  0  0  0  0  0  0  0  0  0  0  0
   -7.3470   -1.9600   -4.6270 N   0  0  0  0  0  0  0  0  0  0  0  0
  -12.1450   -0.9640   -2.3390 O   0  0  0  0  0  0  0  0  0  0  0  0
  -18.7610   -1.8760   -2.7390 F   0  0  0  0  0  0  0  0  0  0  0  0
  -18.4550    0.3250   -2.2750 F   0  0  0  0  0  0  0  0  0  0  0  0
  -19.1950   -1.1300   -0.7370 F   0  0  0  0  0  0  0  0  0  0  0  0
   -9.9592   -1.9070   -4.1913 F   0  0  0  0  0  0  0  0  0  0  0  0
   -9.8231   -3.6819   -2.9032 F   0  0  0  0  0  0  0  0  0  0  0  0
  -16.7841   -3.0194   -3.1226 O   0  0  0  0  0  0  0  0  0  0  0  0
  -16.5478   -4.4512   -2.9919 C   0  0  0  0  0  0  0  0  0  0  0  0
  -15.5235   -4.7324   -3.7517 O   0  0  0  0  0  0  0  0  0  0  0  0
  1  2  2  0
  2  3  1  0
  2 16  1  0
  3  4  1  0
  3  6  2  0
  4  5  1  0
  6  7  1  0
  7 15  1  0
  7  8  1  0
 11 12  1  0
 12 28  1  0
 12 27  1  0
 12 26  1  0
 15 16  1  0
 15 25  2  0
 16 17  1  0
 17 18  1  0
 18 19  1  0
 18 29  1  0
 18 30  1  0
 13 31  1  0
 31 32  1  0
 32 33  2  0
  8  9  2  0
  9 10  1  0
 10 11  2  0
 11 13  1  0
 13 14  2  0
 14  8  1  0
 19 20  2  0
 20 21  1  0
 21 22  2  0
 22 23  1  0
 23 24  2  0
 24 19  1  0
M  END

$$$$
No_138-gen_results_new/Mpro_new_generate_500/2024-01-19-21-58-56/
     RDKit          3D

 32 34  0  0  0  0  0  0  0  0999 V2000
   -9.1300   -2.9100    0.4520 O   0  0  0  0  0  0  0  0  0  0  0  0
  -10.2490   -2.6420    0.1800 C   0  0  0  0  0  0  0  0  0  0  0  0
  -11.3800   -3.0650    1.0860 C   0  0  0  0  0  0  0  0  0  0  0  0
  -11.2000   -3.8390    2.3880 C   0  0  0  0  0  0  0  0  0  0  0  0
  -10.9900   -5.0690    2.3420 N   0  0  0  0  0  0  0  0  0  0  0  0
  -12.7310   -2.7290    0.7330 N   0  0  0  0  0  0  0  0  0  0  0  0
  -12.9960   -1.9940   -0.4510 N   0  0  0  0  0  0  0  0  0  0  0  0
  -14.3580   -1.6940   -0.7530 C   0  0  0  0  0  0  0  0  0  0  0  0
  -15.0390   -0.7180   -0.0560 C   0  0  0  0  0  0  0  0  0  0  0  0
  -16.3510   -0.4690   -0.3980 C   0  0  0  0  0  0  0  0  0  0  0  0
  -16.9430   -1.2030   -1.4080 C   0  0  0  0  0  0  0  0  0  0  0  0
  -18.3840   -0.9560   -1.8060 C   0  0  0  0  0  0  0  0  0  0  0  0
  -16.2510   -2.1690   -2.1000 C   0  0  0  0  0  0  0  0  0  0  0  0
  -14.9490   -2.4160   -1.7590 C   0  0  0  0  0  0  0  0  0  0  0  0
  -11.9050   -1.5730   -1.3540 C   0  0  0  0  0  0  0  0  0  0  0  0
  -10.5280   -1.9050   -1.0240 N   0  0  0  0  0  0  0  0  0  0  0  0
   -9.4550   -1.4720   -1.9190 C   0  0  0  0  0  0  0  0  0  0  0  0
   -9.2820   -2.3940   -3.1270 C   0  0  0  0  0  0  0  0  0  0  0  0
   -7.8170   -2.5500   -3.5360 C   0  0  0  0  0  0  0  0  0  0  0  0
   -6.9720   -3.3210   -2.7550 C   0  0  0  0  0  0  0  0  0  0  0  0
   -5.6390   -3.4770   -3.1110 C   0  0  0  0  0  0  0  0  0  0  0  0
   -5.1940   -2.8390   -4.2640 C   0  0  0  0  0  0  0  0  0  0  0  0
   -6.0850   -2.0780   -5.0070 C   0  0  0  0  0  0  0  0  0  0  0  0
   -7.3470   -1.9600   -4.6270 N   0  0  0  0  0  0  0  0  0  0  0  0
  -12.1450   -0.9640   -2.3390 O   0  0  0  0  0  0  0  0  0  0  0  0
  -18.7610   -1.8760   -2.7390 F   0  0  0  0  0  0  0  0  0  0  0  0
  -18.4550    0.3250   -2.2750 F   0  0  0  0  0  0  0  0  0  0  0  0
  -19.1950   -1.1300   -0.7370 F   0  0  0  0  0  0  0  0  0  0  0  0
  -10.1467   -3.0903   -3.8357 C   0  0  0  0  0  0  0  0  0  0  0  0
  -10.1681   -2.5855   -3.6007 C   0  0  0  0  0  0  0  0  0  0  0  0
  -11.3786   -2.6371   -3.4158 O   0  0  0  0  0  0  0  0  0  0  0  0
  -12.6125   -3.3040   -3.5855 C   0  0  0  0  0  0  0  0  0  0  0  0
  1  2  2  0
  2  3  1  0
  2 16  1  0
  3  4  1  0
  3  6  2  0
  4  5  1  0
  6  7  1  0
  7 15  1  0
  7  8  1  0
 11 12  1  0
 12 28  1  0
 12 27  1  0
 12 26  1  0
 15 16  1  0
 15 25  2  0
 16 17  1  0
 17 18  1  0
 18 19  1  0
 18 29  1  0
 29 30  1  0
 30 31  1  0
 31 32  1  0
  8  9  2  0
  9 10  1  0
 10 11  2  0
 11 13  1  0
 13 14  2  0
 14  8  1  0
 19 20  2  0
 20 21  1  0
 21 22  2  0
 22 23  1  0
 23 24  2  0
 24 19  1  0
M  END

$$$$
No_139-gen_results_new/Mpro_new_generate_500/2024-01-19-21-58-56/
     RDKit          3D

 34 36  0  0  0  0  0  0  0  0999 V2000
   -9.1300   -2.9100    0.4520 O   0  0  0  0  0  0  0  0  0  0  0  0
  -10.2490   -2.6420    0.1800 C   0  0  0  0  0  0  0  0  0  0  0  0
  -11.3800   -3.0650    1.0860 C   0  0  0  0  0  0  0  0  0  0  0  0
  -11.2000   -3.8390    2.3880 C   0  0  0  0  0  0  0  0  0  0  0  0
  -10.9900   -5.0690    2.3420 N   0  0  0  0  0  0  0  0  0  0  0  0
  -12.7310   -2.7290    0.7330 N   0  0  0  0  0  0  0  0  0  0  0  0
  -12.9960   -1.9940   -0.4510 N   0  0  0  0  0  0  0  0  0  0  0  0
  -14.3580   -1.6940   -0.7530 C   0  0  0  0  0  0  0  0  0  0  0  0
  -15.0390   -0.7180   -0.0560 C   0  0  0  0  0  0  0  0  0  0  0  0
  -16.3510   -0.4690   -0.3980 C   0  0  0  0  0  0  0  0  0  0  0  0
  -16.9430   -1.2030   -1.4080 C   0  0  0  0  0  0  0  0  0  0  0  0
  -18.3840   -0.9560   -1.8060 C   0  0  0  0  0  0  0  0  0  0  0  0
  -16.2510   -2.1690   -2.1000 C   0  0  0  0  0  0  0  0  0  0  0  0
  -14.9490   -2.4160   -1.7590 C   0  0  0  0  0  0  0  0  0  0  0  0
  -11.9050   -1.5730   -1.3540 C   0  0  0  0  0  0  0  0  0  0  0  0
  -10.5280   -1.9050   -1.0240 N   0  0  0  0  0  0  0  0  0  0  0  0
   -9.4550   -1.4720   -1.9190 C   0  0  0  0  0  0  0  0  0  0  0  0
   -9.2820   -2.3940   -3.1270 C   0  0  0  0  0  0  0  0  0  0  0  0
   -7.8170   -2.5500   -3.5360 C   0  0  0  0  0  0  0  0  0  0  0  0
   -6.9720   -3.3210   -2.7550 C   0  0  0  0  0  0  0  0  0  0  0  0
   -5.6390   -3.4770   -3.1110 C   0  0  0  0  0  0  0  0  0  0  0  0
   -5.1940   -2.8390   -4.2640 C   0  0  0  0  0  0  0  0  0  0  0  0
   -6.0850   -2.0780   -5.0070 C   0  0  0  0  0  0  0  0  0  0  0  0
   -7.3470   -1.9600   -4.6270 N   0  0  0  0  0  0  0  0  0  0  0  0
  -12.1450   -0.9640   -2.3390 O   0  0  0  0  0  0  0  0  0  0  0  0
  -18.7610   -1.8760   -2.7390 F   0  0  0  0  0  0  0  0  0  0  0  0
  -18.4550    0.3250   -2.2750 F   0  0  0  0  0  0  0  0  0  0  0  0
  -19.1950   -1.1300   -0.7370 F   0  0  0  0  0  0  0  0  0  0  0  0
   -9.7920   -3.7475   -2.8656 C   0  0  0  0  0  0  0  0  0  0  0  0
  -10.0268   -1.9037   -4.2201 F   0  0  0  0  0  0  0  0  0  0  0  0
   -9.7674   -4.7763   -4.0487 C   0  0  0  0  0  0  0  0  0  0  0  0
  -11.2959   -3.8286   -2.5153 C   0  0  0  0  0  0  0  0  0  0  0  0
  -11.9104   -2.9960   -2.6578 F   0  0  0  0  0  0  0  0  0  0  0  0
  -11.9331   -5.1493   -2.4067 C   0  0  0  0  0  0  0  0  0  0  0  0
  1  2  2  0
  2  3  1  0
  2 16  1  0
  3  4  1  0
  3  6  2  0
  4  5  1  0
  6  7  1  0
  7 15  1  0
  7  8  1  0
 11 12  1  0
 12 28  1  0
 12 27  1  0
 12 26  1  0
 15 16  1  0
 15 25  2  0
 16 17  1  0
 17 18  1  0
 18 19  1  0
 18 29  1  0
 18 30  1  0
 29 31  2  0
 29 32  1  0
 32 33  1  0
 32 34  1  0
  8  9  2  0
  9 10  1  0
 10 11  2  0
 11 13  1  0
 13 14  2  0
 14  8  1  0
 19 20  2  0
 20 21  1  0
 21 22  2  0
 22 23  1  0
 23 24  2  0
 24 19  1  0
M  END

$$$$
No_140-gen_results_new/Mpro_new_generate_500/2024-01-19-21-58-56/
     RDKit          3D

 34 36  0  0  0  0  0  0  0  0999 V2000
   -9.1300   -2.9100    0.4520 O   0  0  0  0  0  0  0  0  0  0  0  0
  -10.2490   -2.6420    0.1800 C   0  0  0  0  0  0  0  0  0  0  0  0
  -11.3800   -3.0650    1.0860 C   0  0  0  0  0  0  0  0  0  0  0  0
  -11.2000   -3.8390    2.3880 C   0  0  0  0  0  0  0  0  0  0  0  0
  -10.9900   -5.0690    2.3420 N   0  0  0  0  0  0  0  0  0  0  0  0
  -12.7310   -2.7290    0.7330 N   0  0  0  0  0  0  0  0  0  0  0  0
  -12.9960   -1.9940   -0.4510 N   0  0  0  0  0  0  0  0  0  0  0  0
  -14.3580   -1.6940   -0.7530 C   0  0  0  0  0  0  0  0  0  0  0  0
  -15.0390   -0.7180   -0.0560 C   0  0  0  0  0  0  0  0  0  0  0  0
  -16.3510   -0.4690   -0.3980 C   0  0  0  0  0  0  0  0  0  0  0  0
  -16.9430   -1.2030   -1.4080 C   0  0  0  0  0  0  0  0  0  0  0  0
  -18.3840   -0.9560   -1.8060 C   0  0  0  0  0  0  0  0  0  0  0  0
  -16.2510   -2.1690   -2.1000 C   0  0  0  0  0  0  0  0  0  0  0  0
  -14.9490   -2.4160   -1.7590 C   0  0  0  0  0  0  0  0  0  0  0  0
  -11.9050   -1.5730   -1.3540 C   0  0  0  0  0  0  0  0  0  0  0  0
  -10.5280   -1.9050   -1.0240 N   0  0  0  0  0  0  0  0  0  0  0  0
   -9.4550   -1.4720   -1.9190 C   0  0  0  0  0  0  0  0  0  0  0  0
   -9.2820   -2.3940   -3.1270 C   0  0  0  0  0  0  0  0  0  0  0  0
   -7.8170   -2.5500   -3.5360 C   0  0  0  0  0  0  0  0  0  0  0  0
   -6.9720   -3.3210   -2.7550 C   0  0  0  0  0  0  0  0  0  0  0  0
   -5.6390   -3.4770   -3.1110 C   0  0  0  0  0  0  0  0  0  0  0  0
   -5.1940   -2.8390   -4.2640 C   0  0  0  0  0  0  0  0  0  0  0  0
   -6.0850   -2.0780   -5.0070 C   0  0  0  0  0  0  0  0  0  0  0  0
   -7.3470   -1.9600   -4.6270 N   0  0  0  0  0  0  0  0  0  0  0  0
  -12.1450   -0.9640   -2.3390 O   0  0  0  0  0  0  0  0  0  0  0  0
  -18.7610   -1.8760   -2.7390 F   0  0  0  0  0  0  0  0  0  0  0  0
  -18.4550    0.3250   -2.2750 F   0  0  0  0  0  0  0  0  0  0  0  0
  -19.1950   -1.1300   -0.7370 F   0  0  0  0  0  0  0  0  0  0  0  0
   -9.7920   -3.7475   -2.8656 C   0  0  0  0  0  0  0  0  0  0  0  0
  -10.0268   -1.9037   -4.2201 F   0  0  0  0  0  0  0  0  0  0  0  0
   -9.2446   -4.8373   -2.2763 C   0  0  0  0  0  0  0  0  0  0  0  0
  -10.7279   -4.3016   -3.8125 C   0  0  0  0  0  0  0  0  0  0  0  0
   -9.9726   -4.3277   -4.6585 F   0  0  0  0  0  0  0  0  0  0  0  0
  -11.7157   -3.5504   -3.7131 F   0  0  0  0  0  0  0  0  0  0  0  0
  1  2  2  0
  2  3  1  0
  2 16  1  0
  3  4  1  0
  3  6  2  0
  4  5  1  0
  6  7  1  0
  7 15  1  0
  7  8  1  0
 11 12  1  0
 12 28  1  0
 12 27  1  0
 12 26  1  0
 15 16  1  0
 15 25  2  0
 16 17  1  0
 17 18  1  0
 18 19  1  0
 18 29  1  0
 18 30  1  0
 29 31  2  0
 29 32  1  0
 32 33  1  0
 32 34  1  0
  8  9  2  0
  9 10  1  0
 10 11  2  0
 11 13  1  0
 13 14  2  0
 14  8  1  0
 19 20  2  0
 20 21  1  0
 21 22  2  0
 22 23  1  0
 23 24  2  0
 24 19  1  0
M  END

$$$$
No_141-gen_results_new/Mpro_new_generate_500/2024-01-19-21-58-56/
     RDKit          3D

 33 36  0  0  0  0  0  0  0  0999 V2000
   -9.1300   -2.9100    0.4520 O   0  0  0  0  0  0  0  0  0  0  0  0
  -10.2490   -2.6420    0.1800 C   0  0  0  0  0  0  0  0  0  0  0  0
  -11.3800   -3.0650    1.0860 C   0  0  0  0  0  0  0  0  0  0  0  0
  -11.2000   -3.8390    2.3880 C   0  0  0  0  0  0  0  0  0  0  0  0
  -10.9900   -5.0690    2.3420 N   0  0  0  0  0  0  0  0  0  0  0  0
  -12.7310   -2.7290    0.7330 N   0  0  0  0  0  0  0  0  0  0  0  0
  -12.9960   -1.9940   -0.4510 N   0  0  0  0  0  0  0  0  0  0  0  0
  -14.3580   -1.6940   -0.7530 C   0  0  0  0  0  0  0  0  0  0  0  0
  -15.0390   -0.7180   -0.0560 C   0  0  0  0  0  0  0  0  0  0  0  0
  -16.3510   -0.4690   -0.3980 C   0  0  0  0  0  0  0  0  0  0  0  0
  -16.9430   -1.2030   -1.4080 C   0  0  0  0  0  0  0  0  0  0  0  0
  -18.3840   -0.9560   -1.8060 C   0  0  0  0  0  0  0  0  0  0  0  0
  -16.2510   -2.1690   -2.1000 C   0  0  0  0  0  0  0  0  0  0  0  0
  -14.9490   -2.4160   -1.7590 C   0  0  0  0  0  0  0  0  0  0  0  0
  -11.9050   -1.5730   -1.3540 C   0  0  0  0  0  0  0  0  0  0  0  0
  -10.5280   -1.9050   -1.0240 N   0  0  0  0  0  0  0  0  0  0  0  0
   -9.4550   -1.4720   -1.9190 C   0  0  0  0  0  0  0  0  0  0  0  0
   -9.2820   -2.3940   -3.1270 C   0  0  0  0  0  0  0  0  0  0  0  0
   -7.8170   -2.5500   -3.5360 C   0  0  0  0  0  0  0  0  0  0  0  0
   -6.9720   -3.3210   -2.7550 C   0  0  0  0  0  0  0  0  0  0  0  0
   -5.6390   -3.4770   -3.1110 C   0  0  0  0  0  0  0  0  0  0  0  0
   -5.1940   -2.8390   -4.2640 C   0  0  0  0  0  0  0  0  0  0  0  0
   -6.0850   -2.0780   -5.0070 C   0  0  0  0  0  0  0  0  0  0  0  0
   -7.3470   -1.9600   -4.6270 N   0  0  0  0  0  0  0  0  0  0  0  0
  -12.1450   -0.9640   -2.3390 O   0  0  0  0  0  0  0  0  0  0  0  0
  -18.7610   -1.8760   -2.7390 F   0  0  0  0  0  0  0  0  0  0  0  0
  -18.4550    0.3250   -2.2750 F   0  0  0  0  0  0  0  0  0  0  0  0
  -19.1950   -1.1300   -0.7370 F   0  0  0  0  0  0  0  0  0  0  0  0
  -10.1467   -3.0903   -3.8357 C   0  0  0  0  0  0  0  0  0  0  0  0
  -10.1681   -2.5855   -3.6007 C   0  0  0  0  0  0  0  0  0  0  0  0
  -11.3245   -1.6028   -4.7941 Cl  0  0  0  0  0  0  0  0  0  0  0  0
  -10.7995   -2.4034   -2.4956 O   0  0  0  0  0  0  0  0  0  0  0  0
  -10.7215   -3.7581   -2.4178 C   0  0  0  0  0  0  0  0  0  0  0  0
  1  2  2  0
  2  3  1  0
  2 16  1  0
  3  4  1  0
  3  6  2  0
  4  5  1  0
  6  7  1  0
  7 15  1  0
  7  8  1  0
 11 12  1  0
 12 28  1  0
 12 27  1  0
 12 26  1  0
 15 16  1  0
 15 25  2  0
 16 17  1  0
 17 18  1  0
 18 19  1  0
 18 29  1  0
 29 30  2  0
 30 31  1  0
 30 32  1  0
 29 33  1  0
 32 33  1  0
  8  9  2  0
  9 10  1  0
 10 11  2  0
 11 13  1  0
 13 14  2  0
 14  8  1  0
 19 20  2  0
 20 21  1  0
 21 22  2  0
 22 23  1  0
 23 24  2  0
 24 19  1  0
M  END

$$$$
No_142-gen_results_new/Mpro_new_generate_500/2024-01-19-21-58-56/
     RDKit          3D

 35 38  0  0  0  0  0  0  0  0999 V2000
   -9.1300   -2.9100    0.4520 O   0  0  0  0  0  0  0  0  0  0  0  0
  -10.2490   -2.6420    0.1800 C   0  0  0  0  0  0  0  0  0  0  0  0
  -11.3800   -3.0650    1.0860 C   0  0  0  0  0  0  0  0  0  0  0  0
  -11.2000   -3.8390    2.3880 C   0  0  0  0  0  0  0  0  0  0  0  0
  -10.9900   -5.0690    2.3420 N   0  0  0  0  0  0  0  0  0  0  0  0
  -12.7310   -2.7290    0.7330 N   0  0  0  0  0  0  0  0  0  0  0  0
  -12.9960   -1.9940   -0.4510 N   0  0  0  0  0  0  0  0  0  0  0  0
  -14.3580   -1.6940   -0.7530 C   0  0  0  0  0  0  0  0  0  0  0  0
  -15.0390   -0.7180   -0.0560 C   0  0  0  0  0  0  0  0  0  0  0  0
  -16.3510   -0.4690   -0.3980 C   0  0  0  0  0  0  0  0  0  0  0  0
  -16.9430   -1.2030   -1.4080 C   0  0  0  0  0  0  0  0  0  0  0  0
  -18.3840   -0.9560   -1.8060 C   0  0  0  0  0  0  0  0  0  0  0  0
  -16.2510   -2.1690   -2.1000 C   0  0  0  0  0  0  0  0  0  0  0  0
  -14.9490   -2.4160   -1.7590 C   0  0  0  0  0  0  0  0  0  0  0  0
  -11.9050   -1.5730   -1.3540 C   0  0  0  0  0  0  0  0  0  0  0  0
  -10.5280   -1.9050   -1.0240 N   0  0  0  0  0  0  0  0  0  0  0  0
   -9.4550   -1.4720   -1.9190 C   0  0  0  0  0  0  0  0  0  0  0  0
   -9.2820   -2.3940   -3.1270 C   0  0  0  0  0  0  0  0  0  0  0  0
   -7.8170   -2.5500   -3.5360 C   0  0  0  0  0  0  0  0  0  0  0  0
   -6.9720   -3.3210   -2.7550 C   0  0  0  0  0  0  0  0  0  0  0  0
   -5.6390   -3.4770   -3.1110 C   0  0  0  0  0  0  0  0  0  0  0  0
   -5.1940   -2.8390   -4.2640 C   0  0  0  0  0  0  0  0  0  0  0  0
   -6.0850   -2.0780   -5.0070 C   0  0  0  0  0  0  0  0  0  0  0  0
   -7.3470   -1.9600   -4.6270 N   0  0  0  0  0  0  0  0  0  0  0  0
  -12.1450   -0.9640   -2.3390 O   0  0  0  0  0  0  0  0  0  0  0  0
  -18.7610   -1.8760   -2.7390 F   0  0  0  0  0  0  0  0  0  0  0  0
  -18.4550    0.3250   -2.2750 F   0  0  0  0  0  0  0  0  0  0  0  0
  -19.1950   -1.1300   -0.7370 F   0  0  0  0  0  0  0  0  0  0  0  0
  -10.0453   -2.0069   -4.3181 C   0  0  0  0  0  0  0  0  0  0  0  0
   -9.8476   -3.8948   -2.8015 C   0  0  0  0  0  0  0  0  0  0  0  0
  -10.9871   -4.2370   -3.4678 C   0  0  0  0  0  0  0  0  0  0  0  0
  -10.8610   -5.1456   -3.8848 F   0  0  0  0  0  0  0  0  0  0  0  0
  -12.0806   -4.1432   -2.6643 F   0  0  0  0  0  0  0  0  0  0  0  0
  -11.3063   -3.0016   -4.4808 O   0  0  0  0  0  0  0  0  0  0  0  0
   -9.0940   -4.8240   -2.5839 O   0  0  0  0  0  0  0  0  0  0  0  0
  1  2  2  0
  2  3  1  0
  2 16  1  0
  3  4  1  0
  3  6  2  0
  4  5  1  0
  6  7  1  0
  7 15  1  0
  7  8  1  0
 11 12  1  0
 12 28  1  0
 12 27  1  0
 12 26  1  0
 15 16  1  0
 15 25  2  0
 16 17  1  0
 17 18  1  0
 18 19  1  0
 18 29  1  0
 18 30  1  0
 30 31  1  0
 31 32  1  0
 31 33  1  0
 29 34  1  0
 31 34  1  0
 30 35  2  0
  8  9  2  0
  9 10  1  0
 10 11  2  0
 11 13  1  0
 13 14  2  0
 14  8  1  0
 19 20  2  0
 20 21  1  0
 21 22  2  0
 22 23  1  0
 23 24  2  0
 24 19  1  0
M  END

$$$$
No_143-gen_results_new/Mpro_new_generate_500/2024-01-19-21-58-56/
     RDKit          3D

 35 38  0  0  0  0  0  0  0  0999 V2000
   -9.1300   -2.9100    0.4520 O   0  0  0  0  0  0  0  0  0  0  0  0
  -10.2490   -2.6420    0.1800 C   0  0  0  0  0  0  0  0  0  0  0  0
  -11.3800   -3.0650    1.0860 C   0  0  0  0  0  0  0  0  0  0  0  0
  -11.2000   -3.8390    2.3880 C   0  0  0  0  0  0  0  0  0  0  0  0
  -10.9900   -5.0690    2.3420 N   0  0  0  0  0  0  0  0  0  0  0  0
  -12.7310   -2.7290    0.7330 N   0  0  0  0  0  0  0  0  0  0  0  0
  -12.9960   -1.9940   -0.4510 N   0  0  0  0  0  0  0  0  0  0  0  0
  -14.3580   -1.6940   -0.7530 C   0  0  0  0  0  0  0  0  0  0  0  0
  -15.0390   -0.7180   -0.0560 C   0  0  0  0  0  0  0  0  0  0  0  0
  -16.3510   -0.4690   -0.3980 C   0  0  0  0  0  0  0  0  0  0  0  0
  -16.9430   -1.2030   -1.4080 C   0  0  0  0  0  0  0  0  0  0  0  0
  -18.3840   -0.9560   -1.8060 C   0  0  0  0  0  0  0  0  0  0  0  0
  -16.2510   -2.1690   -2.1000 C   0  0  0  0  0  0  0  0  0  0  0  0
  -14.9490   -2.4160   -1.7590 C   0  0  0  0  0  0  0  0  0  0  0  0
  -11.9050   -1.5730   -1.3540 C   0  0  0  0  0  0  0  0  0  0  0  0
  -10.5280   -1.9050   -1.0240 N   0  0  0  0  0  0  0  0  0  0  0  0
   -9.4550   -1.4720   -1.9190 C   0  0  0  0  0  0  0  0  0  0  0  0
   -9.2820   -2.3940   -3.1270 C   0  0  0  0  0  0  0  0  0  0  0  0
   -7.8170   -2.5500   -3.5360 C   0  0  0  0  0  0  0  0  0  0  0  0
   -6.9720   -3.3210   -2.7550 C   0  0  0  0  0  0  0  0  0  0  0  0
   -5.6390   -3.4770   -3.1110 C   0  0  0  0  0  0  0  0  0  0  0  0
   -5.1940   -2.8390   -4.2640 C   0  0  0  0  0  0  0  0  0  0  0  0
   -6.0850   -2.0780   -5.0070 C   0  0  0  0  0  0  0  0  0  0  0  0
   -7.3470   -1.9600   -4.6270 N   0  0  0  0  0  0  0  0  0  0  0  0
  -12.1450   -0.9640   -2.3390 O   0  0  0  0  0  0  0  0  0  0  0  0
  -18.7610   -1.8760   -2.7390 F   0  0  0  0  0  0  0  0  0  0  0  0
  -18.4550    0.3250   -2.2750 F   0  0  0  0  0  0  0  0  0  0  0  0
  -19.1950   -1.1300   -0.7370 F   0  0  0  0  0  0  0  0  0  0  0  0
  -10.0453   -2.0069   -4.3181 C   0  0  0  0  0  0  0  0  0  0  0  0
   -9.7809   -3.8139   -2.5967 C   0  0  0  0  0  0  0  0  0  0  0  0
   -8.8867   -4.8557   -2.6285 C   0  0  0  0  0  0  0  0  0  0  0  0
   -7.4823   -4.4551   -2.2636 C   0  0  0  0  0  0  0  0  0  0  0  0
   -9.4208   -5.8939   -1.6064 C   0  0  0  0  0  0  0  0  0  0  0  0
   -6.7550   -5.2330   -1.5054 O   0  0  0  0  0  0  0  0  0  0  0  0
   -9.2119   -5.7014   -3.9564 C   0  0  0  0  0  0  0  0  0  0  0  0
  1  2  2  0
  2  3  1  0
  2 16  1  0
  3  4  1  0
  3  6  2  0
  4  5  1  0
  6  7  1  0
  7 15  1  0
  7  8  1  0
 11 12  1  0
 12 28  1  0
 12 27  1  0
 12 26  1  0
 15 16  1  0
 15 25  2  0
 16 17  1  0
 17 18  1  0
 18 19  1  0
 18 29  1  0
 18 30  1  0
 30 31  1  0
 20 32  1  0
 31 32  1  0
 31 33  1  0
 32 34  2  0
 31 35  1  0
  8  9  2  0
  9 10  1  0
 10 11  2  0
 11 13  1  0
 13 14  2  0
 14  8  1  0
 19 24  1  0
 24 23  2  0
 23 22  1  0
 22 21  2  0
 21 20  1  0
 20 19  2  0
M  END

$$$$
No_144-gen_results_new/Mpro_new_generate_500/2024-01-19-21-58-56/
     RDKit          3D

 32 34  0  0  0  0  0  0  0  0999 V2000
   -9.1300   -2.9100    0.4520 O   0  0  0  0  0  0  0  0  0  0  0  0
  -10.2490   -2.6420    0.1800 C   0  0  0  0  0  0  0  0  0  0  0  0
  -11.3800   -3.0650    1.0860 C   0  0  0  0  0  0  0  0  0  0  0  0
  -11.2000   -3.8390    2.3880 C   0  0  0  0  0  0  0  0  0  0  0  0
  -10.9900   -5.0690    2.3420 N   0  0  0  0  0  0  0  0  0  0  0  0
  -12.7310   -2.7290    0.7330 N   0  0  0  0  0  0  0  0  0  0  0  0
  -12.9960   -1.9940   -0.4510 N   0  0  0  0  0  0  0  0  0  0  0  0
  -14.3580   -1.6940   -0.7530 C   0  0  0  0  0  0  0  0  0  0  0  0
  -15.0390   -0.7180   -0.0560 C   0  0  0  0  0  0  0  0  0  0  0  0
  -16.3510   -0.4690   -0.3980 C   0  0  0  0  0  0  0  0  0  0  0  0
  -16.9430   -1.2030   -1.4080 C   0  0  0  0  0  0  0  0  0  0  0  0
  -18.3840   -0.9560   -1.8060 C   0  0  0  0  0  0  0  0  0  0  0  0
  -16.2510   -2.1690   -2.1000 C   0  0  0  0  0  0  0  0  0  0  0  0
  -14.9490   -2.4160   -1.7590 C   0  0  0  0  0  0  0  0  0  0  0  0
  -11.9050   -1.5730   -1.3540 C   0  0  0  0  0  0  0  0  0  0  0  0
  -10.5280   -1.9050   -1.0240 N   0  0  0  0  0  0  0  0  0  0  0  0
   -9.4550   -1.4720   -1.9190 C   0  0  0  0  0  0  0  0  0  0  0  0
   -9.2820   -2.3940   -3.1270 C   0  0  0  0  0  0  0  0  0  0  0  0
   -7.8170   -2.5500   -3.5360 C   0  0  0  0  0  0  0  0  0  0  0  0
   -6.9720   -3.3210   -2.7550 C   0  0  0  0  0  0  0  0  0  0  0  0
   -5.6390   -3.4770   -3.1110 C   0  0  0  0  0  0  0  0  0  0  0  0
   -5.1940   -2.8390   -4.2640 C   0  0  0  0  0  0  0  0  0  0  0  0
   -6.0850   -2.0780   -5.0070 C   0  0  0  0  0  0  0  0  0  0  0  0
   -7.3470   -1.9600   -4.6270 N   0  0  0  0  0  0  0  0  0  0  0  0
  -12.1450   -0.9640   -2.3390 O   0  0  0  0  0  0  0  0  0  0  0  0
  -18.7610   -1.8760   -2.7390 F   0  0  0  0  0  0  0  0  0  0  0  0
  -18.4550    0.3250   -2.2750 F   0  0  0  0  0  0  0  0  0  0  0  0
  -19.1950   -1.1300   -0.7370 F   0  0  0  0  0  0  0  0  0  0  0  0
   -9.6560   -3.6380   -2.7665 F   0  0  0  0  0  0  0  0  0  0  0  0
  -10.1381   -2.2895   -4.0767 O   0  0  0  0  0  0  0  0  0  0  0  0
  -10.1121   -3.2662   -5.1548 C   0  0  0  0  0  0  0  0  0  0  0  0
   -9.9182   -2.3838   -6.1669 O   0  0  0  0  0  0  0  0  0  0  0  0
  1  2  2  0
  2  3  1  0
  2 16  1  0
  3  4  1  0
  3  6  2  0
  4  5  1  0
  6  7  1  0
  7 15  1  0
  7  8  1  0
 11 12  1  0
 12 28  1  0
 12 27  1  0
 12 26  1  0
 15 16  1  0
 15 25  2  0
 16 17  1  0
 17 18  1  0
 18 19  1  0
 18 29  1  0
 18 30  1  0
 30 31  1  0
 31 32  2  0
  8  9  2  0
  9 10  1  0
 10 11  2  0
 11 13  1  0
 13 14  2  0
 14  8  1  0
 19 20  2  0
 20 21  1  0
 21 22  2  0
 22 23  1  0
 23 24  2  0
 24 19  1  0
M  END

$$$$
No_145-gen_results_new/Mpro_new_generate_500/2024-01-19-21-58-56/
     RDKit          3D

 35 38  0  0  0  0  0  0  0  0999 V2000
   -9.1300   -2.9100    0.4520 O   0  0  0  0  0  0  0  0  0  0  0  0
  -10.2490   -2.6420    0.1800 C   0  0  0  0  0  0  0  0  0  0  0  0
  -11.3800   -3.0650    1.0860 C   0  0  0  0  0  0  0  0  0  0  0  0
  -11.2000   -3.8390    2.3880 C   0  0  0  0  0  0  0  0  0  0  0  0
  -10.9900   -5.0690    2.3420 N   0  0  0  0  0  0  0  0  0  0  0  0
  -12.7310   -2.7290    0.7330 N   0  0  0  0  0  0  0  0  0  0  0  0
  -12.9960   -1.9940   -0.4510 N   0  0  0  0  0  0  0  0  0  0  0  0
  -14.3580   -1.6940   -0.7530 C   0  0  0  0  0  0  0  0  0  0  0  0
  -15.0390   -0.7180   -0.0560 C   0  0  0  0  0  0  0  0  0  0  0  0
  -16.3510   -0.4690   -0.3980 C   0  0  0  0  0  0  0  0  0  0  0  0
  -16.9430   -1.2030   -1.4080 C   0  0  0  0  0  0  0  0  0  0  0  0
  -18.3840   -0.9560   -1.8060 C   0  0  0  0  0  0  0  0  0  0  0  0
  -16.2510   -2.1690   -2.1000 C   0  0  0  0  0  0  0  0  0  0  0  0
  -14.9490   -2.4160   -1.7590 C   0  0  0  0  0  0  0  0  0  0  0  0
  -11.9050   -1.5730   -1.3540 C   0  0  0  0  0  0  0  0  0  0  0  0
  -10.5280   -1.9050   -1.0240 N   0  0  0  0  0  0  0  0  0  0  0  0
   -9.4550   -1.4720   -1.9190 C   0  0  0  0  0  0  0  0  0  0  0  0
   -9.2820   -2.3940   -3.1270 C   0  0  0  0  0  0  0  0  0  0  0  0
   -7.8170   -2.5500   -3.5360 C   0  0  0  0  0  0  0  0  0  0  0  0
   -6.9720   -3.3210   -2.7550 C   0  0  0  0  0  0  0  0  0  0  0  0
   -5.6390   -3.4770   -3.1110 C   0  0  0  0  0  0  0  0  0  0  0  0
   -5.1940   -2.8390   -4.2640 C   0  0  0  0  0  0  0  0  0  0  0  0
   -6.0850   -2.0780   -5.0070 C   0  0  0  0  0  0  0  0  0  0  0  0
   -7.3470   -1.9600   -4.6270 N   0  0  0  0  0  0  0  0  0  0  0  0
  -12.1450   -0.9640   -2.3390 O   0  0  0  0  0  0  0  0  0  0  0  0
  -18.7610   -1.8760   -2.7390 F   0  0  0  0  0  0  0  0  0  0  0  0
  -18.4550    0.3250   -2.2750 F   0  0  0  0  0  0  0  0  0  0  0  0
  -19.1950   -1.1300   -0.7370 F   0  0  0  0  0  0  0  0  0  0  0  0
  -10.0453   -2.0069   -4.3181 C   0  0  0  0  0  0  0  0  0  0  0  0
   -9.8476   -3.8948   -2.8015 C   0  0  0  0  0  0  0  0  0  0  0  0
  -10.9871   -4.2370   -3.4678 C   0  0  0  0  0  0  0  0  0  0  0  0
  -11.1005   -3.0106   -4.3397 O   0  0  0  0  0  0  0  0  0  0  0  0
  -12.1606   -4.9559   -4.1288 C   0  0  0  0  0  0  0  0  0  0  0  0
  -12.1238   -5.6327   -5.0856 F   0  0  0  0  0  0  0  0  0  0  0  0
  -12.2922   -5.9600   -3.1733 F   0  0  0  0  0  0  0  0  0  0  0  0
  1  2  2  0
  2  3  1  0
  2 16  1  0
  3  4  1  0
  3  6  2  0
  4  5  1  0
  6  7  1  0
  7 15  1  0
  7  8  1  0
 11 12  1  0
 12 28  1  0
 12 27  1  0
 12 26  1  0
 15 16  1  0
 15 25  2  0
 16 17  1  0
 17 18  1  0
 18 19  1  0
 18 29  1  0
 18 30  1  0
 30 31  1  0
 29 32  1  0
 31 32  1  0
 31 33  1  0
 33 34  1  0
 33 35  1  0
  8  9  2  0
  9 10  1  0
 10 11  2  0
 11 13  1  0
 13 14  2  0
 14  8  1  0
 19 20  2  0
 20 21  1  0
 21 22  2  0
 22 23  1  0
 23 24  2  0
 24 19  1  0
M  END

$$$$
No_146-gen_results_new/Mpro_new_generate_500/2024-01-19-21-58-56/
     RDKit          3D

 35 38  0  0  0  0  0  0  0  0999 V2000
   -9.1300   -2.9100    0.4520 O   0  0  0  0  0  0  0  0  0  0  0  0
  -10.2490   -2.6420    0.1800 C   0  0  0  0  0  0  0  0  0  0  0  0
  -11.3800   -3.0650    1.0860 C   0  0  0  0  0  0  0  0  0  0  0  0
  -11.2000   -3.8390    2.3880 C   0  0  0  0  0  0  0  0  0  0  0  0
  -10.9900   -5.0690    2.3420 N   0  0  0  0  0  0  0  0  0  0  0  0
  -12.7310   -2.7290    0.7330 N   0  0  0  0  0  0  0  0  0  0  0  0
  -12.9960   -1.9940   -0.4510 N   0  0  0  0  0  0  0  0  0  0  0  0
  -14.3580   -1.6940   -0.7530 C   0  0  0  0  0  0  0  0  0  0  0  0
  -15.0390   -0.7180   -0.0560 C   0  0  0  0  0  0  0  0  0  0  0  0
  -16.3510   -0.4690   -0.3980 C   0  0  0  0  0  0  0  0  0  0  0  0
  -16.9430   -1.2030   -1.4080 C   0  0  0  0  0  0  0  0  0  0  0  0
  -18.3840   -0.9560   -1.8060 C   0  0  0  0  0  0  0  0  0  0  0  0
  -16.2510   -2.1690   -2.1000 C   0  0  0  0  0  0  0  0  0  0  0  0
  -14.9490   -2.4160   -1.7590 C   0  0  0  0  0  0  0  0  0  0  0  0
  -11.9050   -1.5730   -1.3540 C   0  0  0  0  0  0  0  0  0  0  0  0
  -10.5280   -1.9050   -1.0240 N   0  0  0  0  0  0  0  0  0  0  0  0
   -9.4550   -1.4720   -1.9190 C   0  0  0  0  0  0  0  0  0  0  0  0
   -9.2820   -2.3940   -3.1270 C   0  0  0  0  0  0  0  0  0  0  0  0
   -7.8170   -2.5500   -3.5360 C   0  0  0  0  0  0  0  0  0  0  0  0
   -6.9720   -3.3210   -2.7550 C   0  0  0  0  0  0  0  0  0  0  0  0
   -5.6390   -3.4770   -3.1110 C   0  0  0  0  0  0  0  0  0  0  0  0
   -5.1940   -2.8390   -4.2640 C   0  0  0  0  0  0  0  0  0  0  0  0
   -6.0850   -2.0780   -5.0070 C   0  0  0  0  0  0  0  0  0  0  0  0
   -7.3470   -1.9600   -4.6270 N   0  0  0  0  0  0  0  0  0  0  0  0
  -12.1450   -0.9640   -2.3390 O   0  0  0  0  0  0  0  0  0  0  0  0
  -18.7610   -1.8760   -2.7390 F   0  0  0  0  0  0  0  0  0  0  0  0
  -18.4550    0.3250   -2.2750 F   0  0  0  0  0  0  0  0  0  0  0  0
  -19.1950   -1.1300   -0.7370 F   0  0  0  0  0  0  0  0  0  0  0  0
  -10.0453   -2.0069   -4.3181 C   0  0  0  0  0  0  0  0  0  0  0  0
   -9.8903   -3.8143   -2.9484 C   0  0  0  0  0  0  0  0  0  0  0  0
  -10.2391   -4.6422   -4.0501 C   0  0  0  0  0  0  0  0  0  0  0  0
  -11.0178   -5.8154   -3.8818 F   0  0  0  0  0  0  0  0  0  0  0  0
  -10.3363   -4.0294   -5.2828 C   0  0  0  0  0  0  0  0  0  0  0  0
  -11.0165   -4.9231   -6.4544 C   0  0  0  0  0  0  0  0  0  0  0  0
  -10.6161   -2.6935   -5.3719 C   0  0  0  0  0  0  0  0  0  0  0  0
  1  2  2  0
  2  3  1  0
  2 16  1  0
  3  4  1  0
  3  6  2  0
  4  5  1  0
  6  7  1  0
  7 15  1  0
  7  8  1  0
 11 12  1  0
 12 28  1  0
 12 27  1  0
 12 26  1  0
 15 16  1  0
 15 25  2  0
 16 17  1  0
 17 18  1  0
 18 19  1  0
 18 29  1  0
 18 30  1  0
 31 32  1  0
 31 33  1  0
 33 34  1  0
 33 35  1  0
 29 35  1  0
 31 30  1  0
  8  9  2  0
  9 10  1  0
 10 11  2  0
 11 13  1  0
 13 14  2  0
 14  8  1  0
 19 20  2  0
 20 21  1  0
 21 22  2  0
 22 23  1  0
 23 24  2  0
 24 19  1  0
M  END

$$$$
No_147-gen_results_new/Mpro_new_generate_500/2024-01-19-21-58-56/
     RDKit          3D

 35 37  0  0  0  0  0  0  0  0999 V2000
   -9.1300   -2.9100    0.4520 O   0  0  0  0  0  0  0  0  0  0  0  0
  -10.2490   -2.6420    0.1800 C   0  0  0  0  0  0  0  0  0  0  0  0
  -11.3800   -3.0650    1.0860 C   0  0  0  0  0  0  0  0  0  0  0  0
  -11.2000   -3.8390    2.3880 C   0  0  0  0  0  0  0  0  0  0  0  0
  -10.9900   -5.0690    2.3420 N   0  0  0  0  0  0  0  0  0  0  0  0
  -12.7310   -2.7290    0.7330 N   0  0  0  0  0  0  0  0  0  0  0  0
  -12.9960   -1.9940   -0.4510 N   0  0  0  0  0  0  0  0  0  0  0  0
  -14.3580   -1.6940   -0.7530 C   0  0  0  0  0  0  0  0  0  0  0  0
  -15.0390   -0.7180   -0.0560 C   0  0  0  0  0  0  0  0  0  0  0  0
  -16.3510   -0.4690   -0.3980 C   0  0  0  0  0  0  0  0  0  0  0  0
  -16.9430   -1.2030   -1.4080 C   0  0  0  0  0  0  0  0  0  0  0  0
  -18.3840   -0.9560   -1.8060 C   0  0  0  0  0  0  0  0  0  0  0  0
  -16.2510   -2.1690   -2.1000 C   0  0  0  0  0  0  0  0  0  0  0  0
  -14.9490   -2.4160   -1.7590 C   0  0  0  0  0  0  0  0  0  0  0  0
  -11.9050   -1.5730   -1.3540 C   0  0  0  0  0  0  0  0  0  0  0  0
  -10.5280   -1.9050   -1.0240 N   0  0  0  0  0  0  0  0  0  0  0  0
   -9.4550   -1.4720   -1.9190 C   0  0  0  0  0  0  0  0  0  0  0  0
   -9.2820   -2.3940   -3.1270 C   0  0  0  0  0  0  0  0  0  0  0  0
   -7.8170   -2.5500   -3.5360 C   0  0  0  0  0  0  0  0  0  0  0  0
   -6.9720   -3.3210   -2.7550 C   0  0  0  0  0  0  0  0  0  0  0  0
   -5.6390   -3.4770   -3.1110 C   0  0  0  0  0  0  0  0  0  0  0  0
   -5.1940   -2.8390   -4.2640 C   0  0  0  0  0  0  0  0  0  0  0  0
   -6.0850   -2.0780   -5.0070 C   0  0  0  0  0  0  0  0  0  0  0  0
   -7.3470   -1.9600   -4.6270 N   0  0  0  0  0  0  0  0  0  0  0  0
  -12.1450   -0.9640   -2.3390 O   0  0  0  0  0  0  0  0  0  0  0  0
  -18.7610   -1.8760   -2.7390 F   0  0  0  0  0  0  0  0  0  0  0  0
  -18.4550    0.3250   -2.2750 F   0  0  0  0  0  0  0  0  0  0  0  0
  -19.1950   -1.1300   -0.7370 F   0  0  0  0  0  0  0  0  0  0  0  0
   -9.7561   -3.5765   -2.9053 O   0  0  0  0  0  0  0  0  0  0  0  0
  -10.1654   -2.2318   -4.2998 C   0  0  0  0  0  0  0  0  0  0  0  0
  -11.1514   -3.3323   -4.8277 C   0  0  0  0  0  0  0  0  0  0  0  0
  -11.6738   -3.0423   -5.7929 O   0  0  0  0  0  0  0  0  0  0  0  0
  -11.4691   -4.4297   -4.2329 O   0  0  0  0  0  0  0  0  0  0  0  0
   -9.6253   -4.5177   -3.5495 C   0  0  0  0  0  0  0  0  0  0  0  0
  -12.2669   -5.3341   -4.3057 C   0  0  0  0  0  0  0  0  0  0  0  0
  1  2  2  0
  2  3  1  0
  2 16  1  0
  3  4  1  0
  3  6  2  0
  4  5  1  0
  6  7  1  0
  7 15  1  0
  7  8  1  0
 11 12  1  0
 12 28  1  0
 12 27  1  0
 12 26  1  0
 15 16  1  0
 15 25  2  0
 16 17  1  0
 17 18  1  0
 18 19  1  0
 18 29  1  0
 18 30  1  0
 30 31  1  0
 31 32  2  0
 31 33  1  0
 29 34  1  0
 33 35  1  0
  8  9  2  0
  9 10  1  0
 10 11  2  0
 11 13  1  0
 13 14  2  0
 14  8  1  0
 19 20  2  0
 20 21  1  0
 21 22  2  0
 22 23  1  0
 23 24  2  0
 24 19  1  0
M  END

$$$$
No_148-gen_results_new/Mpro_new_generate_500/2024-01-19-21-58-56/
     RDKit          3D

 32 34  0  0  0  0  0  0  0  0999 V2000
   -9.1300   -2.9100    0.4520 O   0  0  0  0  0  0  0  0  0  0  0  0
  -10.2490   -2.6420    0.1800 C   0  0  0  0  0  0  0  0  0  0  0  0
  -11.3800   -3.0650    1.0860 C   0  0  0  0  0  0  0  0  0  0  0  0
  -11.2000   -3.8390    2.3880 C   0  0  0  0  0  0  0  0  0  0  0  0
  -10.9900   -5.0690    2.3420 N   0  0  0  0  0  0  0  0  0  0  0  0
  -12.7310   -2.7290    0.7330 N   0  0  0  0  0  0  0  0  0  0  0  0
  -12.9960   -1.9940   -0.4510 N   0  0  0  0  0  0  0  0  0  0  0  0
  -14.3580   -1.6940   -0.7530 C   0  0  0  0  0  0  0  0  0  0  0  0
  -15.0390   -0.7180   -0.0560 C   0  0  0  0  0  0  0  0  0  0  0  0
  -16.3510   -0.4690   -0.3980 C   0  0  0  0  0  0  0  0  0  0  0  0
  -16.9430   -1.2030   -1.4080 C   0  0  0  0  0  0  0  0  0  0  0  0
  -18.3840   -0.9560   -1.8060 C   0  0  0  0  0  0  0  0  0  0  0  0
  -16.2510   -2.1690   -2.1000 C   0  0  0  0  0  0  0  0  0  0  0  0
  -14.9490   -2.4160   -1.7590 C   0  0  0  0  0  0  0  0  0  0  0  0
  -11.9050   -1.5730   -1.3540 C   0  0  0  0  0  0  0  0  0  0  0  0
  -10.5280   -1.9050   -1.0240 N   0  0  0  0  0  0  0  0  0  0  0  0
   -9.4550   -1.4720   -1.9190 C   0  0  0  0  0  0  0  0  0  0  0  0
   -9.2820   -2.3940   -3.1270 C   0  0  0  0  0  0  0  0  0  0  0  0
   -7.8170   -2.5500   -3.5360 C   0  0  0  0  0  0  0  0  0  0  0  0
   -6.9720   -3.3210   -2.7550 C   0  0  0  0  0  0  0  0  0  0  0  0
   -5.6390   -3.4770   -3.1110 C   0  0  0  0  0  0  0  0  0  0  0  0
   -5.1940   -2.8390   -4.2640 C   0  0  0  0  0  0  0  0  0  0  0  0
   -6.0850   -2.0780   -5.0070 C   0  0  0  0  0  0  0  0  0  0  0  0
   -7.3470   -1.9600   -4.6270 N   0  0  0  0  0  0  0  0  0  0  0  0
  -12.1450   -0.9640   -2.3390 O   0  0  0  0  0  0  0  0  0  0  0  0
  -18.7610   -1.8760   -2.7390 F   0  0  0  0  0  0  0  0  0  0  0  0
  -18.4550    0.3250   -2.2750 F   0  0  0  0  0  0  0  0  0  0  0  0
  -19.1950   -1.1300   -0.7370 F   0  0  0  0  0  0  0  0  0  0  0  0
   -9.7920   -3.7475   -2.8656 C   0  0  0  0  0  0  0  0  0  0  0  0
  -10.0268   -1.9037   -4.2201 F   0  0  0  0  0  0  0  0  0  0  0  0
   -9.2446   -4.8373   -2.2763 C   0  0  0  0  0  0  0  0  0  0  0  0
  -11.0028   -3.8110   -2.7452 F   0  0  0  0  0  0  0  0  0  0  0  0
  1  2  2  0
  2  3  1  0
  2 16  1  0
  3  4  1  0
  3  6  2  0
  4  5  1  0
  6  7  1  0
  7 15  1  0
  7  8  1  0
 11 12  1  0
 12 28  1  0
 12 27  1  0
 12 26  1  0
 15 16  1  0
 15 25  2  0
 16 17  1  0
 17 18  1  0
 18 19  1  0
 18 29  1  0
 18 30  1  0
 29 31  2  0
 29 32  1  0
  8  9  2  0
  9 10  1  0
 10 11  2  0
 11 13  1  0
 13 14  2  0
 14  8  1  0
 19 20  2  0
 20 21  1  0
 21 22  2  0
 22 23  1  0
 23 24  2  0
 24 19  1  0
M  END

$$$$
No_149-gen_results_new/Mpro_new_generate_500/2024-01-19-21-58-56/
     RDKit          3D

 35 37  0  0  0  0  0  0  0  0999 V2000
   -9.1300   -2.9100    0.4520 O   0  0  0  0  0  0  0  0  0  0  0  0
  -10.2490   -2.6420    0.1800 C   0  0  0  0  0  0  0  0  0  0  0  0
  -11.3800   -3.0650    1.0860 C   0  0  0  0  0  0  0  0  0  0  0  0
  -11.2000   -3.8390    2.3880 C   0  0  0  0  0  0  0  0  0  0  0  0
  -10.9900   -5.0690    2.3420 N   0  0  0  0  0  0  0  0  0  0  0  0
  -12.7310   -2.7290    0.7330 N   0  0  0  0  0  0  0  0  0  0  0  0
  -12.9960   -1.9940   -0.4510 N   0  0  0  0  0  0  0  0  0  0  0  0
  -14.3580   -1.6940   -0.7530 C   0  0  0  0  0  0  0  0  0  0  0  0
  -15.0390   -0.7180   -0.0560 C   0  0  0  0  0  0  0  0  0  0  0  0
  -16.3510   -0.4690   -0.3980 C   0  0  0  0  0  0  0  0  0  0  0  0
  -16.9430   -1.2030   -1.4080 C   0  0  0  0  0  0  0  0  0  0  0  0
  -18.3840   -0.9560   -1.8060 C   0  0  0  0  0  0  0  0  0  0  0  0
  -16.2510   -2.1690   -2.1000 C   0  0  0  0  0  0  0  0  0  0  0  0
  -14.9490   -2.4160   -1.7590 C   0  0  0  0  0  0  0  0  0  0  0  0
  -11.9050   -1.5730   -1.3540 C   0  0  0  0  0  0  0  0  0  0  0  0
  -10.5280   -1.9050   -1.0240 N   0  0  0  0  0  0  0  0  0  0  0  0
   -9.4550   -1.4720   -1.9190 C   0  0  0  0  0  0  0  0  0  0  0  0
   -9.2820   -2.3940   -3.1270 C   0  0  0  0  0  0  0  0  0  0  0  0
   -7.8170   -2.5500   -3.5360 C   0  0  0  0  0  0  0  0  0  0  0  0
   -6.9720   -3.3210   -2.7550 C   0  0  0  0  0  0  0  0  0  0  0  0
   -5.6390   -3.4770   -3.1110 C   0  0  0  0  0  0  0  0  0  0  0  0
   -5.1940   -2.8390   -4.2640 C   0  0  0  0  0  0  0  0  0  0  0  0
   -6.0850   -2.0780   -5.0070 C   0  0  0  0  0  0  0  0  0  0  0  0
   -7.3470   -1.9600   -4.6270 N   0  0  0  0  0  0  0  0  0  0  0  0
  -12.1450   -0.9640   -2.3390 O   0  0  0  0  0  0  0  0  0  0  0  0
  -18.7610   -1.8760   -2.7390 F   0  0  0  0  0  0  0  0  0  0  0  0
  -18.4550    0.3250   -2.2750 F   0  0  0  0  0  0  0  0  0  0  0  0
  -19.1950   -1.1300   -0.7370 F   0  0  0  0  0  0  0  0  0  0  0  0
  -10.0899   -3.0088   -3.7244 O   0  0  0  0  0  0  0  0  0  0  0  0
  -16.7844   -3.0180   -3.1233 O   0  0  0  0  0  0  0  0  0  0  0  0
  -17.1277   -2.7877   -4.2706 C   0  0  0  0  0  0  0  0  0  0  0  0
  -18.3107   -3.3330   -4.0331 C   0  0  0  0  0  0  0  0  0  0  0  0
  -19.3815   -2.6194   -4.8369 C   0  0  0  0  0  0  0  0  0  0  0  0
  -18.6478   -4.4339   -3.3350 N   0  0  0  0  0  0  0  0  0  0  0  0
  -18.1318   -4.2466   -4.5957 C   0  0  0  0  0  0  0  0  0  0  0  0
  1  2  2  0
  2  3  1  0
  2 16  1  0
  3  4  1  0
  3  6  2  0
  4  5  1  0
  6  7  1  0
  7 15  1  0
  7  8  1  0
 11 12  1  0
 12 28  1  0
 12 27  1  0
 12 26  1  0
 15 16  1  0
 15 25  2  0
 16 17  1  0
 17 18  1  0
 18 19  1  0
 18 29  2  0
 13 30  1  0
 30 31  1  0
 31 32  1  0
 32 33  1  0
 32 34  1  0
 32 35  1  0
  8  9  2  0
  9 10  1  0
 10 11  2  0
 11 13  1  0
 13 14  2  0
 14  8  1  0
 19 20  2  0
 20 21  1  0
 21 22  2  0
 22 23  1  0
 23 24  2  0
 24 19  1  0
M  END

$$$$
No_150-gen_results_new/Mpro_new_generate_500/2024-01-19-21-58-56/
     RDKit          3D

 35 38  0  0  0  0  0  0  0  0999 V2000
   -9.1300   -2.9100    0.4520 O   0  0  0  0  0  0  0  0  0  0  0  0
  -10.2490   -2.6420    0.1800 C   0  0  0  0  0  0  0  0  0  0  0  0
  -11.3800   -3.0650    1.0860 C   0  0  0  0  0  0  0  0  0  0  0  0
  -11.2000   -3.8390    2.3880 C   0  0  0  0  0  0  0  0  0  0  0  0
  -10.9900   -5.0690    2.3420 N   0  0  0  0  0  0  0  0  0  0  0  0
  -12.7310   -2.7290    0.7330 N   0  0  0  0  0  0  0  0  0  0  0  0
  -12.9960   -1.9940   -0.4510 N   0  0  0  0  0  0  0  0  0  0  0  0
  -14.3580   -1.6940   -0.7530 C   0  0  0  0  0  0  0  0  0  0  0  0
  -15.0390   -0.7180   -0.0560 C   0  0  0  0  0  0  0  0  0  0  0  0
  -16.3510   -0.4690   -0.3980 C   0  0  0  0  0  0  0  0  0  0  0  0
  -16.9430   -1.2030   -1.4080 C   0  0  0  0  0  0  0  0  0  0  0  0
  -18.3840   -0.9560   -1.8060 C   0  0  0  0  0  0  0  0  0  0  0  0
  -16.2510   -2.1690   -2.1000 C   0  0  0  0  0  0  0  0  0  0  0  0
  -14.9490   -2.4160   -1.7590 C   0  0  0  0  0  0  0  0  0  0  0  0
  -11.9050   -1.5730   -1.3540 C   0  0  0  0  0  0  0  0  0  0  0  0
  -10.5280   -1.9050   -1.0240 N   0  0  0  0  0  0  0  0  0  0  0  0
   -9.4550   -1.4720   -1.9190 C   0  0  0  0  0  0  0  0  0  0  0  0
   -9.2820   -2.3940   -3.1270 C   0  0  0  0  0  0  0  0  0  0  0  0
   -7.8170   -2.5500   -3.5360 C   0  0  0  0  0  0  0  0  0  0  0  0
   -6.9720   -3.3210   -2.7550 C   0  0  0  0  0  0  0  0  0  0  0  0
   -5.6390   -3.4770   -3.1110 C   0  0  0  0  0  0  0  0  0  0  0  0
   -5.1940   -2.8390   -4.2640 C   0  0  0  0  0  0  0  0  0  0  0  0
   -6.0850   -2.0780   -5.0070 C   0  0  0  0  0  0  0  0  0  0  0  0
   -7.3470   -1.9600   -4.6270 N   0  0  0  0  0  0  0  0  0  0  0  0
  -12.1450   -0.9640   -2.3390 O   0  0  0  0  0  0  0  0  0  0  0  0
  -18.7610   -1.8760   -2.7390 F   0  0  0  0  0  0  0  0  0  0  0  0
  -18.4550    0.3250   -2.2750 F   0  0  0  0  0  0  0  0  0  0  0  0
  -19.1950   -1.1300   -0.7370 F   0  0  0  0  0  0  0  0  0  0  0  0
   -9.7920   -3.7475   -2.8656 C   0  0  0  0  0  0  0  0  0  0  0  0
  -10.0717   -1.8029   -4.3549 C   0  0  0  0  0  0  0  0  0  0  0  0
  -10.8091   -3.9382   -3.1276 O   0  0  0  0  0  0  0  0  0  0  0  0
   -9.5763   -4.4904   -1.6077 C   0  0  0  0  0  0  0  0  0  0  0  0
  -10.2700   -4.8881   -0.5765 C   0  0  0  0  0  0  0  0  0  0  0  0
  -11.5256   -5.0635   -0.2433 C   0  0  0  0  0  0  0  0  0  0  0  0
  -11.5369   -6.0186    1.0812 C   0  0  0  0  0  0  0  0  0  0  0  0
  1  2  2  0
  2  3  1  0
  2 16  1  0
  3  4  1  0
  3  6  2  0
  4  5  1  0
  6  7  1  0
  7 15  1  0
  7  8  1  0
 11 12  1  0
 12 28  1  0
 12 27  1  0
 12 26  1  0
 15 16  1  0
 15 25  2  0
 16 17  1  0
 17 18  1  0
 18 19  1  0
 18 29  1  0
 18 30  1  0
 29 31  2  0
 29 32  1  0
 32 33  2  0
 33 34  1  0
  5 35  1  0
 34 35  1  0
  8  9  2  0
  9 10  1  0
 10 11  2  0
 11 13  1  0
 13 14  2  0
 14  8  1  0
 19 20  2  0
 20 21  1  0
 21 22  2  0
 22 23  1  0
 23 24  2  0
 24 19  1  0
M  END

$$$$
No_151-gen_results_new/Mpro_new_generate_500/2024-01-19-21-58-56/
     RDKit          3D

 33 35  0  0  0  0  0  0  0  0999 V2000
   -9.1300   -2.9100    0.4520 O   0  0  0  0  0  0  0  0  0  0  0  0
  -10.2490   -2.6420    0.1800 C   0  0  0  0  0  0  0  0  0  0  0  0
  -11.3800   -3.0650    1.0860 C   0  0  0  0  0  0  0  0  0  0  0  0
  -11.2000   -3.8390    2.3880 C   0  0  0  0  0  0  0  0  0  0  0  0
  -10.9900   -5.0690    2.3420 N   0  0  0  0  0  0  0  0  0  0  0  0
  -12.7310   -2.7290    0.7330 N   0  0  0  0  0  0  0  0  0  0  0  0
  -12.9960   -1.9940   -0.4510 N   0  0  0  0  0  0  0  0  0  0  0  0
  -14.3580   -1.6940   -0.7530 C   0  0  0  0  0  0  0  0  0  0  0  0
  -15.0390   -0.7180   -0.0560 C   0  0  0  0  0  0  0  0  0  0  0  0
  -16.3510   -0.4690   -0.3980 C   0  0  0  0  0  0  0  0  0  0  0  0
  -16.9430   -1.2030   -1.4080 C   0  0  0  0  0  0  0  0  0  0  0  0
  -18.3840   -0.9560   -1.8060 C   0  0  0  0  0  0  0  0  0  0  0  0
  -16.2510   -2.1690   -2.1000 C   0  0  0  0  0  0  0  0  0  0  0  0
  -14.9490   -2.4160   -1.7590 C   0  0  0  0  0  0  0  0  0  0  0  0
  -11.9050   -1.5730   -1.3540 C   0  0  0  0  0  0  0  0  0  0  0  0
  -10.5280   -1.9050   -1.0240 N   0  0  0  0  0  0  0  0  0  0  0  0
   -9.4550   -1.4720   -1.9190 C   0  0  0  0  0  0  0  0  0  0  0  0
   -9.2820   -2.3940   -3.1270 C   0  0  0  0  0  0  0  0  0  0  0  0
   -7.8170   -2.5500   -3.5360 C   0  0  0  0  0  0  0  0  0  0  0  0
   -6.9720   -3.3210   -2.7550 C   0  0  0  0  0  0  0  0  0  0  0  0
   -5.6390   -3.4770   -3.1110 C   0  0  0  0  0  0  0  0  0  0  0  0
   -5.1940   -2.8390   -4.2640 C   0  0  0  0  0  0  0  0  0  0  0  0
   -6.0850   -2.0780   -5.0070 C   0  0  0  0  0  0  0  0  0  0  0  0
   -7.3470   -1.9600   -4.6270 N   0  0  0  0  0  0  0  0  0  0  0  0
  -12.1450   -0.9640   -2.3390 O   0  0  0  0  0  0  0  0  0  0  0  0
  -18.7610   -1.8760   -2.7390 F   0  0  0  0  0  0  0  0  0  0  0  0
  -18.4550    0.3250   -2.2750 F   0  0  0  0  0  0  0  0  0  0  0  0
  -19.1950   -1.1300   -0.7370 F   0  0  0  0  0  0  0  0  0  0  0  0
   -9.7920   -3.7475   -2.8656 C   0  0  0  0  0  0  0  0  0  0  0  0
  -10.0268   -1.9037   -4.2201 F   0  0  0  0  0  0  0  0  0  0  0  0
   -9.2446   -4.8373   -2.2763 C   0  0  0  0  0  0  0  0  0  0  0  0
  -11.0575   -4.2003   -3.5428 C   0  0  0  0  0  0  0  0  0  0  0  0
   -9.5099   -5.3896   -1.0344 C   0  0  0  0  0  0  0  0  0  0  0  0
  1  2  2  0
  2  3  1  0
  2 16  1  0
  3  4  1  0
  3  6  2  0
  4  5  1  0
  6  7  1  0
  7 15  1  0
  7  8  1  0
 11 12  1  0
 12 28  1  0
 12 27  1  0
 12 26  1  0
 15 16  1  0
 15 25  2  0
 16 17  1  0
 17 18  1  0
 18 19  1  0
 18 29  1  0
 18 30  1  0
 29 31  1  0
 29 32  1  0
 31 33  2  0
  8  9  2  0
  9 10  1  0
 10 11  2  0
 11 13  1  0
 13 14  2  0
 14  8  1  0
 19 20  2  0
 20 21  1  0
 21 22  2  0
 22 23  1  0
 23 24  2  0
 24 19  1  0
M  END

$$$$
No_152-gen_results_new/Mpro_new_generate_500/2024-01-19-21-58-56/
     RDKit          3D

 35 38  0  0  0  0  0  0  0  0999 V2000
   -9.1300   -2.9100    0.4520 O   0  0  0  0  0  0  0  0  0  0  0  0
  -10.2490   -2.6420    0.1800 C   0  0  0  0  0  0  0  0  0  0  0  0
  -11.3800   -3.0650    1.0860 C   0  0  0  0  0  0  0  0  0  0  0  0
  -11.2000   -3.8390    2.3880 C   0  0  0  0  0  0  0  0  0  0  0  0
  -10.9900   -5.0690    2.3420 N   0  0  0  0  0  0  0  0  0  0  0  0
  -12.7310   -2.7290    0.7330 N   0  0  0  0  0  0  0  0  0  0  0  0
  -12.9960   -1.9940   -0.4510 N   0  0  0  0  0  0  0  0  0  0  0  0
  -14.3580   -1.6940   -0.7530 C   0  0  0  0  0  0  0  0  0  0  0  0
  -15.0390   -0.7180   -0.0560 C   0  0  0  0  0  0  0  0  0  0  0  0
  -16.3510   -0.4690   -0.3980 C   0  0  0  0  0  0  0  0  0  0  0  0
  -16.9430   -1.2030   -1.4080 C   0  0  0  0  0  0  0  0  0  0  0  0
  -18.3840   -0.9560   -1.8060 C   0  0  0  0  0  0  0  0  0  0  0  0
  -16.2510   -2.1690   -2.1000 C   0  0  0  0  0  0  0  0  0  0  0  0
  -14.9490   -2.4160   -1.7590 C   0  0  0  0  0  0  0  0  0  0  0  0
  -11.9050   -1.5730   -1.3540 C   0  0  0  0  0  0  0  0  0  0  0  0
  -10.5280   -1.9050   -1.0240 N   0  0  0  0  0  0  0  0  0  0  0  0
   -9.4550   -1.4720   -1.9190 C   0  0  0  0  0  0  0  0  0  0  0  0
   -9.2820   -2.3940   -3.1270 C   0  0  0  0  0  0  0  0  0  0  0  0
   -7.8170   -2.5500   -3.5360 C   0  0  0  0  0  0  0  0  0  0  0  0
   -6.9720   -3.3210   -2.7550 C   0  0  0  0  0  0  0  0  0  0  0  0
   -5.6390   -3.4770   -3.1110 C   0  0  0  0  0  0  0  0  0  0  0  0
   -5.1940   -2.8390   -4.2640 C   0  0  0  0  0  0  0  0  0  0  0  0
   -6.0850   -2.0780   -5.0070 C   0  0  0  0  0  0  0  0  0  0  0  0
   -7.3470   -1.9600   -4.6270 N   0  0  0  0  0  0  0  0  0  0  0  0
  -12.1450   -0.9640   -2.3390 O   0  0  0  0  0  0  0  0  0  0  0  0
  -18.7610   -1.8760   -2.7390 F   0  0  0  0  0  0  0  0  0  0  0  0
  -18.4550    0.3250   -2.2750 F   0  0  0  0  0  0  0  0  0  0  0  0
  -19.1950   -1.1300   -0.7370 F   0  0  0  0  0  0  0  0  0  0  0  0
   -9.7920   -3.7475   -2.8656 C   0  0  0  0  0  0  0  0  0  0  0  0
  -10.0717   -1.8029   -4.3549 C   0  0  0  0  0  0  0  0  0  0  0  0
  -10.0419   -4.6597   -4.1091 C   0  0  0  0  0  0  0  0  0  0  0  0
  -10.3271   -4.0944   -5.2068 O   0  0  0  0  0  0  0  0  0  0  0  0
  -10.6195   -2.6984   -5.2717 C   0  0  0  0  0  0  0  0  0  0  0  0
  -11.0463   -2.1489   -6.6142 C   0  0  0  0  0  0  0  0  0  0  0  0
   -9.5827   -0.5123   -4.9134 C   0  0  0  0  0  0  0  0  0  0  0  0
  1  2  2  0
  2  3  1  0
  2 16  1  0
  3  4  1  0
  3  6  2  0
  4  5  1  0
  6  7  1  0
  7 15  1  0
  7  8  1  0
 11 12  1  0
 12 28  1  0
 12 27  1  0
 12 26  1  0
 15 16  1  0
 15 25  2  0
 16 17  1  0
 17 18  1  0
 18 19  1  0
 18 29  1  0
 18 30  1  0
 29 31  2  0
 31 32  1  0
 30 33  1  0
 32 33  1  0
 33 34  1  0
 30 35  1  0
  8  9  2  0
  9 10  1  0
 10 11  2  0
 11 13  1  0
 13 14  2  0
 14  8  1  0
 19 20  2  0
 20 21  1  0
 21 22  2  0
 22 23  1  0
 23 24  2  0
 24 19  1  0
M  END

$$$$
No_153-gen_results_new/Mpro_new_generate_500/2024-01-19-21-58-56/
     RDKit          3D

 32 34  0  0  0  0  0  0  0  0999 V2000
   -9.1300   -2.9100    0.4520 O   0  0  0  0  0  0  0  0  0  0  0  0
  -10.2490   -2.6420    0.1800 C   0  0  0  0  0  0  0  0  0  0  0  0
  -11.3800   -3.0650    1.0860 C   0  0  0  0  0  0  0  0  0  0  0  0
  -11.2000   -3.8390    2.3880 C   0  0  0  0  0  0  0  0  0  0  0  0
  -10.9900   -5.0690    2.3420 N   0  0  0  0  0  0  0  0  0  0  0  0
  -12.7310   -2.7290    0.7330 N   0  0  0  0  0  0  0  0  0  0  0  0
  -12.9960   -1.9940   -0.4510 N   0  0  0  0  0  0  0  0  0  0  0  0
  -14.3580   -1.6940   -0.7530 C   0  0  0  0  0  0  0  0  0  0  0  0
  -15.0390   -0.7180   -0.0560 C   0  0  0  0  0  0  0  0  0  0  0  0
  -16.3510   -0.4690   -0.3980 C   0  0  0  0  0  0  0  0  0  0  0  0
  -16.9430   -1.2030   -1.4080 C   0  0  0  0  0  0  0  0  0  0  0  0
  -18.3840   -0.9560   -1.8060 C   0  0  0  0  0  0  0  0  0  0  0  0
  -16.2510   -2.1690   -2.1000 C   0  0  0  0  0  0  0  0  0  0  0  0
  -14.9490   -2.4160   -1.7590 C   0  0  0  0  0  0  0  0  0  0  0  0
  -11.9050   -1.5730   -1.3540 C   0  0  0  0  0  0  0  0  0  0  0  0
  -10.5280   -1.9050   -1.0240 N   0  0  0  0  0  0  0  0  0  0  0  0
   -9.4550   -1.4720   -1.9190 C   0  0  0  0  0  0  0  0  0  0  0  0
   -9.2820   -2.3940   -3.1270 C   0  0  0  0  0  0  0  0  0  0  0  0
   -7.8170   -2.5500   -3.5360 C   0  0  0  0  0  0  0  0  0  0  0  0
   -6.9720   -3.3210   -2.7550 C   0  0  0  0  0  0  0  0  0  0  0  0
   -5.6390   -3.4770   -3.1110 C   0  0  0  0  0  0  0  0  0  0  0  0
   -5.1940   -2.8390   -4.2640 C   0  0  0  0  0  0  0  0  0  0  0  0
   -6.0850   -2.0780   -5.0070 C   0  0  0  0  0  0  0  0  0  0  0  0
   -7.3470   -1.9600   -4.6270 N   0  0  0  0  0  0  0  0  0  0  0  0
  -12.1450   -0.9640   -2.3390 O   0  0  0  0  0  0  0  0  0  0  0  0
  -18.7610   -1.8760   -2.7390 F   0  0  0  0  0  0  0  0  0  0  0  0
  -18.4550    0.3250   -2.2750 F   0  0  0  0  0  0  0  0  0  0  0  0
  -19.1950   -1.1300   -0.7370 F   0  0  0  0  0  0  0  0  0  0  0  0
  -10.0453   -2.0069   -4.3181 C   0  0  0  0  0  0  0  0  0  0  0  0
   -9.8476   -3.8948   -2.8015 C   0  0  0  0  0  0  0  0  0  0  0  0
  -10.9871   -4.2370   -3.4678 C   0  0  0  0  0  0  0  0  0  0  0  0
  -10.9887   -4.6095   -4.4138 C   0  0  0  0  0  0  0  0  0  0  0  0
  1  2  2  0
  2  3  1  0
  2 16  1  0
  3  4  1  0
  3  6  2  0
  4  5  1  0
  6  7  1  0
  7 15  1  0
  7  8  1  0
 11 12  1  0
 12 28  1  0
 12 27  1  0
 12 26  1  0
 15 16  1  0
 15 25  2  0
 16 17  1  0
 17 18  1  0
 18 19  1  0
 18 29  1  0
 18 30  1  0
 30 31  1  0
 31 32  2  0
  8  9  2  0
  9 10  1  0
 10 11  2  0
 11 13  1  0
 13 14  2  0
 14  8  1  0
 19 20  2  0
 20 21  1  0
 21 22  2  0
 22 23  1  0
 23 24  2  0
 24 19  1  0
M  END

$$$$
No_154-gen_results_new/Mpro_new_generate_500/2024-01-19-21-58-56/
     RDKit          3D

 35 38  0  0  0  0  0  0  0  0999 V2000
   -9.1300   -2.9100    0.4520 O   0  0  0  0  0  0  0  0  0  0  0  0
  -10.2490   -2.6420    0.1800 C   0  0  0  0  0  0  0  0  0  0  0  0
  -11.3800   -3.0650    1.0860 C   0  0  0  0  0  0  0  0  0  0  0  0
  -11.2000   -3.8390    2.3880 C   0  0  0  0  0  0  0  0  0  0  0  0
  -10.9900   -5.0690    2.3420 N   0  0  0  0  0  0  0  0  0  0  0  0
  -12.7310   -2.7290    0.7330 N   0  0  0  0  0  0  0  0  0  0  0  0
  -12.9960   -1.9940   -0.4510 N   0  0  0  0  0  0  0  0  0  0  0  0
  -14.3580   -1.6940   -0.7530 C   0  0  0  0  0  0  0  0  0  0  0  0
  -15.0390   -0.7180   -0.0560 C   0  0  0  0  0  0  0  0  0  0  0  0
  -16.3510   -0.4690   -0.3980 C   0  0  0  0  0  0  0  0  0  0  0  0
  -16.9430   -1.2030   -1.4080 C   0  0  0  0  0  0  0  0  0  0  0  0
  -18.3840   -0.9560   -1.8060 C   0  0  0  0  0  0  0  0  0  0  0  0
  -16.2510   -2.1690   -2.1000 C   0  0  0  0  0  0  0  0  0  0  0  0
  -14.9490   -2.4160   -1.7590 C   0  0  0  0  0  0  0  0  0  0  0  0
  -11.9050   -1.5730   -1.3540 C   0  0  0  0  0  0  0  0  0  0  0  0
  -10.5280   -1.9050   -1.0240 N   0  0  0  0  0  0  0  0  0  0  0  0
   -9.4550   -1.4720   -1.9190 C   0  0  0  0  0  0  0  0  0  0  0  0
   -9.2820   -2.3940   -3.1270 C   0  0  0  0  0  0  0  0  0  0  0  0
   -7.8170   -2.5500   -3.5360 C   0  0  0  0  0  0  0  0  0  0  0  0
   -6.9720   -3.3210   -2.7550 C   0  0  0  0  0  0  0  0  0  0  0  0
   -5.6390   -3.4770   -3.1110 C   0  0  0  0  0  0  0  0  0  0  0  0
   -5.1940   -2.8390   -4.2640 C   0  0  0  0  0  0  0  0  0  0  0  0
   -6.0850   -2.0780   -5.0070 C   0  0  0  0  0  0  0  0  0  0  0  0
   -7.3470   -1.9600   -4.6270 N   0  0  0  0  0  0  0  0  0  0  0  0
  -12.1450   -0.9640   -2.3390 O   0  0  0  0  0  0  0  0  0  0  0  0
  -18.7610   -1.8760   -2.7390 F   0  0  0  0  0  0  0  0  0  0  0  0
  -18.4550    0.3250   -2.2750 F   0  0  0  0  0  0  0  0  0  0  0  0
  -19.1950   -1.1300   -0.7370 F   0  0  0  0  0  0  0  0  0  0  0  0
  -10.0453   -2.0069   -4.3181 C   0  0  0  0  0  0  0  0  0  0  0  0
   -9.8476   -3.8948   -2.8015 C   0  0  0  0  0  0  0  0  0  0  0  0
  -10.1714   -4.7331   -3.9309 C   0  0  0  0  0  0  0  0  0  0  0  0
  -10.1706   -6.0308   -3.5979 O   0  0  0  0  0  0  0  0  0  0  0  0
   -9.4459   -6.4041   -2.5012 C   0  0  0  0  0  0  0  0  0  0  0  0
   -9.4844   -6.0477   -1.5062 C   0  0  0  0  0  0  0  0  0  0  0  0
   -9.4092   -4.3899   -1.6748 O   0  0  0  0  0  0  0  0  0  0  0  0
  1  2  2  0
  2  3  1  0
  2 16  1  0
  3  4  1  0
  3  6  2  0
  4  5  1  0
  6  7  1  0
  7 15  1  0
  7  8  1  0
 11 12  1  0
 12 28  1  0
 12 27  1  0
 12 26  1  0
 15 16  1  0
 15 25  2  0
 16 17  1  0
 17 18  1  0
 18 19  1  0
 18 29  1  0
 18 30  1  0
 30 31  2  0
 31 32  1  0
 32 33  1  0
 33 34  2  0
 30 35  1  0
 34 35  1  0
  8  9  2  0
  9 10  1  0
 10 11  2  0
 11 13  1  0
 13 14  2  0
 14  8  1  0
 19 20  2  0
 20 21  1  0
 21 22  2  0
 22 23  1  0
 23 24  2  0
 24 19  1  0
M  END

$$$$
No_155-gen_results_new/Mpro_new_generate_500/2024-01-19-21-58-56/
     RDKit          3D

 33 35  0  0  0  0  0  0  0  0999 V2000
   -9.1300   -2.9100    0.4520 O   0  0  0  0  0  0  0  0  0  0  0  0
  -10.2490   -2.6420    0.1800 C   0  0  0  0  0  0  0  0  0  0  0  0
  -11.3800   -3.0650    1.0860 C   0  0  0  0  0  0  0  0  0  0  0  0
  -11.2000   -3.8390    2.3880 C   0  0  0  0  0  0  0  0  0  0  0  0
  -10.9900   -5.0690    2.3420 N   0  0  0  0  0  0  0  0  0  0  0  0
  -12.7310   -2.7290    0.7330 N   0  0  0  0  0  0  0  0  0  0  0  0
  -12.9960   -1.9940   -0.4510 N   0  0  0  0  0  0  0  0  0  0  0  0
  -14.3580   -1.6940   -0.7530 C   0  0  0  0  0  0  0  0  0  0  0  0
  -15.0390   -0.7180   -0.0560 C   0  0  0  0  0  0  0  0  0  0  0  0
  -16.3510   -0.4690   -0.3980 C   0  0  0  0  0  0  0  0  0  0  0  0
  -16.9430   -1.2030   -1.4080 C   0  0  0  0  0  0  0  0  0  0  0  0
  -18.3840   -0.9560   -1.8060 C   0  0  0  0  0  0  0  0  0  0  0  0
  -16.2510   -2.1690   -2.1000 C   0  0  0  0  0  0  0  0  0  0  0  0
  -14.9490   -2.4160   -1.7590 C   0  0  0  0  0  0  0  0  0  0  0  0
  -11.9050   -1.5730   -1.3540 C   0  0  0  0  0  0  0  0  0  0  0  0
  -10.5280   -1.9050   -1.0240 N   0  0  0  0  0  0  0  0  0  0  0  0
   -9.4550   -1.4720   -1.9190 C   0  0  0  0  0  0  0  0  0  0  0  0
   -9.2820   -2.3940   -3.1270 C   0  0  0  0  0  0  0  0  0  0  0  0
   -7.8170   -2.5500   -3.5360 C   0  0  0  0  0  0  0  0  0  0  0  0
   -6.9720   -3.3210   -2.7550 C   0  0  0  0  0  0  0  0  0  0  0  0
   -5.6390   -3.4770   -3.1110 C   0  0  0  0  0  0  0  0  0  0  0  0
   -5.1940   -2.8390   -4.2640 C   0  0  0  0  0  0  0  0  0  0  0  0
   -6.0850   -2.0780   -5.0070 C   0  0  0  0  0  0  0  0  0  0  0  0
   -7.3470   -1.9600   -4.6270 N   0  0  0  0  0  0  0  0  0  0  0  0
  -12.1450   -0.9640   -2.3390 O   0  0  0  0  0  0  0  0  0  0  0  0
  -18.7610   -1.8760   -2.7390 F   0  0  0  0  0  0  0  0  0  0  0  0
  -18.4550    0.3250   -2.2750 F   0  0  0  0  0  0  0  0  0  0  0  0
  -19.1950   -1.1300   -0.7370 F   0  0  0  0  0  0  0  0  0  0  0  0
  -10.1467   -3.0903   -3.8357 C   0  0  0  0  0  0  0  0  0  0  0  0
  -10.3179   -2.6325   -3.8272 S   0  0  0  0  0  0  0  0  0  0  0  0
  -11.8281   -2.4298   -4.1004 S   0  0  0  0  0  0  0  0  0  0  0  0
  -10.2495   -1.6581   -5.3500 O   0  0  0  0  0  0  0  0  0  0  0  0
  -10.5140   -3.7453   -3.2029 C   0  0  0  0  0  0  0  0  0  0  0  0
  1  2  2  0
  2  3  1  0
  2 16  1  0
  3  4  1  0
  3  6  2  0
  4  5  1  0
  6  7  1  0
  7 15  1  0
  7  8  1  0
 11 12  1  0
 12 28  1  0
 12 27  1  0
 12 26  1  0
 15 16  1  0
 15 25  2  0
 16 17  1  0
 17 18  1  0
 18 19  1  0
 18 29  1  0
 29 30  1  0
 30 31  2  0
 30 32  2  0
 29 33  1  0
  8  9  2  0
  9 10  1  0
 10 11  2  0
 11 13  1  0
 13 14  2  0
 14  8  1  0
 19 20  2  0
 20 21  1  0
 21 22  2  0
 22 23  1  0
 23 24  2  0
 24 19  1  0
M  END

$$$$
No_156-gen_results_new/Mpro_new_generate_500/2024-01-19-21-58-56/
     RDKit          3D

 34 36  0  0  0  0  0  0  0  0999 V2000
   -9.1300   -2.9100    0.4520 O   0  0  0  0  0  0  0  0  0  0  0  0
  -10.2490   -2.6420    0.1800 C   0  0  0  0  0  0  0  0  0  0  0  0
  -11.3800   -3.0650    1.0860 C   0  0  0  0  0  0  0  0  0  0  0  0
  -11.2000   -3.8390    2.3880 C   0  0  0  0  0  0  0  0  0  0  0  0
  -10.9900   -5.0690    2.3420 N   0  0  0  0  0  0  0  0  0  0  0  0
  -12.7310   -2.7290    0.7330 N   0  0  0  0  0  0  0  0  0  0  0  0
  -12.9960   -1.9940   -0.4510 N   0  0  0  0  0  0  0  0  0  0  0  0
  -14.3580   -1.6940   -0.7530 C   0  0  0  0  0  0  0  0  0  0  0  0
  -15.0390   -0.7180   -0.0560 C   0  0  0  0  0  0  0  0  0  0  0  0
  -16.3510   -0.4690   -0.3980 C   0  0  0  0  0  0  0  0  0  0  0  0
  -16.9430   -1.2030   -1.4080 C   0  0  0  0  0  0  0  0  0  0  0  0
  -18.3840   -0.9560   -1.8060 C   0  0  0  0  0  0  0  0  0  0  0  0
  -16.2510   -2.1690   -2.1000 C   0  0  0  0  0  0  0  0  0  0  0  0
  -14.9490   -2.4160   -1.7590 C   0  0  0  0  0  0  0  0  0  0  0  0
  -11.9050   -1.5730   -1.3540 C   0  0  0  0  0  0  0  0  0  0  0  0
  -10.5280   -1.9050   -1.0240 N   0  0  0  0  0  0  0  0  0  0  0  0
   -9.4550   -1.4720   -1.9190 C   0  0  0  0  0  0  0  0  0  0  0  0
   -9.2820   -2.3940   -3.1270 C   0  0  0  0  0  0  0  0  0  0  0  0
   -7.8170   -2.5500   -3.5360 C   0  0  0  0  0  0  0  0  0  0  0  0
   -6.9720   -3.3210   -2.7550 C   0  0  0  0  0  0  0  0  0  0  0  0
   -5.6390   -3.4770   -3.1110 C   0  0  0  0  0  0  0  0  0  0  0  0
   -5.1940   -2.8390   -4.2640 C   0  0  0  0  0  0  0  0  0  0  0  0
   -6.0850   -2.0780   -5.0070 C   0  0  0  0  0  0  0  0  0  0  0  0
   -7.3470   -1.9600   -4.6270 N   0  0  0  0  0  0  0  0  0  0  0  0
  -12.1450   -0.9640   -2.3390 O   0  0  0  0  0  0  0  0  0  0  0  0
  -18.7610   -1.8760   -2.7390 F   0  0  0  0  0  0  0  0  0  0  0  0
  -18.4550    0.3250   -2.2750 F   0  0  0  0  0  0  0  0  0  0  0  0
  -19.1950   -1.1300   -0.7370 F   0  0  0  0  0  0  0  0  0  0  0  0
  -10.0899   -3.0088   -3.7244 O   0  0  0  0  0  0  0  0  0  0  0  0
  -16.7844   -3.0180   -3.1233 O   0  0  0  0  0  0  0  0  0  0  0  0
  -16.5408   -4.4495   -2.9958 C   0  0  0  0  0  0  0  0  0  0  0  0
  -15.4005   -4.7138   -4.0517 C   0  0  0  0  0  0  0  0  0  0  0  0
  -14.4544   -5.7591   -3.4728 C   0  0  0  0  0  0  0  0  0  0  0  0
  -13.4811   -6.0702   -4.2691 N   0  0  0  0  0  0  0  0  0  0  0  0
  1  2  2  0
  2  3  1  0
  2 16  1  0
  3  4  1  0
  3  6  2  0
  4  5  1  0
  6  7  1  0
  7 15  1  0
  7  8  1  0
 11 12  1  0
 12 28  1  0
 12 27  1  0
 12 26  1  0
 15 16  1  0
 15 25  2  0
 16 17  1  0
 17 18  1  0
 18 19  1  0
 18 29  2  0
 13 30  1  0
 30 31  1  0
 31 32  1  0
 32 33  2  3
 33 34  1  0
  8  9  2  0
  9 10  1  0
 10 11  2  0
 11 13  1  0
 13 14  2  0
 14  8  1  0
 19 20  2  0
 20 21  1  0
 21 22  2  0
 22 23  1  0
 23 24  2  0
 24 19  1  0
M  END

$$$$
No_157-gen_results_new/Mpro_new_generate_500/2024-01-19-21-58-56/
     RDKit          3D

 31 33  0  0  0  0  0  0  0  0999 V2000
   -9.1300   -2.9100    0.4520 O   0  0  0  0  0  0  0  0  0  0  0  0
  -10.2490   -2.6420    0.1800 C   0  0  0  0  0  0  0  0  0  0  0  0
  -11.3800   -3.0650    1.0860 C   0  0  0  0  0  0  0  0  0  0  0  0
  -11.2000   -3.8390    2.3880 C   0  0  0  0  0  0  0  0  0  0  0  0
  -10.9900   -5.0690    2.3420 N   0  0  0  0  0  0  0  0  0  0  0  0
  -12.7310   -2.7290    0.7330 N   0  0  0  0  0  0  0  0  0  0  0  0
  -12.9960   -1.9940   -0.4510 N   0  0  0  0  0  0  0  0  0  0  0  0
  -14.3580   -1.6940   -0.7530 C   0  0  0  0  0  0  0  0  0  0  0  0
  -15.0390   -0.7180   -0.0560 C   0  0  0  0  0  0  0  0  0  0  0  0
  -16.3510   -0.4690   -0.3980 C   0  0  0  0  0  0  0  0  0  0  0  0
  -16.9430   -1.2030   -1.4080 C   0  0  0  0  0  0  0  0  0  0  0  0
  -18.3840   -0.9560   -1.8060 C   0  0  0  0  0  0  0  0  0  0  0  0
  -16.2510   -2.1690   -2.1000 C   0  0  0  0  0  0  0  0  0  0  0  0
  -14.9490   -2.4160   -1.7590 C   0  0  0  0  0  0  0  0  0  0  0  0
  -11.9050   -1.5730   -1.3540 C   0  0  0  0  0  0  0  0  0  0  0  0
  -10.5280   -1.9050   -1.0240 N   0  0  0  0  0  0  0  0  0  0  0  0
   -9.4550   -1.4720   -1.9190 C   0  0  0  0  0  0  0  0  0  0  0  0
   -9.2820   -2.3940   -3.1270 C   0  0  0  0  0  0  0  0  0  0  0  0
   -7.8170   -2.5500   -3.5360 C   0  0  0  0  0  0  0  0  0  0  0  0
   -6.9720   -3.3210   -2.7550 C   0  0  0  0  0  0  0  0  0  0  0  0
   -5.6390   -3.4770   -3.1110 C   0  0  0  0  0  0  0  0  0  0  0  0
   -5.1940   -2.8390   -4.2640 C   0  0  0  0  0  0  0  0  0  0  0  0
   -6.0850   -2.0780   -5.0070 C   0  0  0  0  0  0  0  0  0  0  0  0
   -7.3470   -1.9600   -4.6270 N   0  0  0  0  0  0  0  0  0  0  0  0
  -12.1450   -0.9640   -2.3390 O   0  0  0  0  0  0  0  0  0  0  0  0
  -18.7610   -1.8760   -2.7390 F   0  0  0  0  0  0  0  0  0  0  0  0
  -18.4550    0.3250   -2.2750 F   0  0  0  0  0  0  0  0  0  0  0  0
  -19.1950   -1.1300   -0.7370 F   0  0  0  0  0  0  0  0  0  0  0  0
  -10.0453   -2.0069   -4.3181 C   0  0  0  0  0  0  0  0  0  0  0  0
   -9.7809   -3.8139   -2.5967 C   0  0  0  0  0  0  0  0  0  0  0  0
   -9.9864   -4.7821   -3.8205 C   0  0  0  0  0  0  0  0  0  0  0  0
  1  2  2  0
  2  3  1  0
  2 16  1  0
  3  4  1  0
  3  6  2  0
  4  5  1  0
  6  7  1  0
  7 15  1  0
  7  8  1  0
 11 12  1  0
 12 28  1  0
 12 27  1  0
 12 26  1  0
 15 16  1  0
 15 25  2  0
 16 17  1  0
 17 18  1  0
 18 19  1  0
 18 29  1  0
 18 30  1  0
 30 31  2  0
  8  9  2  0
  9 10  1  0
 10 11  2  0
 11 13  1  0
 13 14  2  0
 14  8  1  0
 19 20  2  0
 20 21  1  0
 21 22  2  0
 22 23  1  0
 23 24  2  0
 24 19  1  0
M  END

$$$$
No_158-gen_results_new/Mpro_new_generate_500/2024-01-19-21-58-56/
     RDKit          3D

 35 38  0  0  0  0  0  0  0  0999 V2000
   -9.1300   -2.9100    0.4520 O   0  0  0  0  0  0  0  0  0  0  0  0
  -10.2490   -2.6420    0.1800 C   0  0  0  0  0  0  0  0  0  0  0  0
  -11.3800   -3.0650    1.0860 C   0  0  0  0  0  0  0  0  0  0  0  0
  -11.2000   -3.8390    2.3880 C   0  0  0  0  0  0  0  0  0  0  0  0
  -10.9900   -5.0690    2.3420 N   0  0  0  0  0  0  0  0  0  0  0  0
  -12.7310   -2.7290    0.7330 N   0  0  0  0  0  0  0  0  0  0  0  0
  -12.9960   -1.9940   -0.4510 N   0  0  0  0  0  0  0  0  0  0  0  0
  -14.3580   -1.6940   -0.7530 C   0  0  0  0  0  0  0  0  0  0  0  0
  -15.0390   -0.7180   -0.0560 C   0  0  0  0  0  0  0  0  0  0  0  0
  -16.3510   -0.4690   -0.3980 C   0  0  0  0  0  0  0  0  0  0  0  0
  -16.9430   -1.2030   -1.4080 C   0  0  0  0  0  0  0  0  0  0  0  0
  -18.3840   -0.9560   -1.8060 C   0  0  0  0  0  0  0  0  0  0  0  0
  -16.2510   -2.1690   -2.1000 C   0  0  0  0  0  0  0  0  0  0  0  0
  -14.9490   -2.4160   -1.7590 C   0  0  0  0  0  0  0  0  0  0  0  0
  -11.9050   -1.5730   -1.3540 C   0  0  0  0  0  0  0  0  0  0  0  0
  -10.5280   -1.9050   -1.0240 N   0  0  0  0  0  0  0  0  0  0  0  0
   -9.4550   -1.4720   -1.9190 C   0  0  0  0  0  0  0  0  0  0  0  0
   -9.2820   -2.3940   -3.1270 C   0  0  0  0  0  0  0  0  0  0  0  0
   -7.8170   -2.5500   -3.5360 C   0  0  0  0  0  0  0  0  0  0  0  0
   -6.9720   -3.3210   -2.7550 C   0  0  0  0  0  0  0  0  0  0  0  0
   -5.6390   -3.4770   -3.1110 C   0  0  0  0  0  0  0  0  0  0  0  0
   -5.1940   -2.8390   -4.2640 C   0  0  0  0  0  0  0  0  0  0  0  0
   -6.0850   -2.0780   -5.0070 C   0  0  0  0  0  0  0  0  0  0  0  0
   -7.3470   -1.9600   -4.6270 N   0  0  0  0  0  0  0  0  0  0  0  0
  -12.1450   -0.9640   -2.3390 O   0  0  0  0  0  0  0  0  0  0  0  0
  -18.7610   -1.8760   -2.7390 F   0  0  0  0  0  0  0  0  0  0  0  0
  -18.4550    0.3250   -2.2750 F   0  0  0  0  0  0  0  0  0  0  0  0
  -19.1950   -1.1300   -0.7370 F   0  0  0  0  0  0  0  0  0  0  0  0
  -10.0453   -2.0069   -4.3181 C   0  0  0  0  0  0  0  0  0  0  0  0
   -9.8029   -3.7797   -2.8149 O   0  0  0  0  0  0  0  0  0  0  0  0
  -10.7486   -2.9890   -5.0825 C   0  0  0  0  0  0  0  0  0  0  0  0
  -11.5763   -3.8111   -4.4883 C   0  0  0  0  0  0  0  0  0  0  0  0
  -11.4239   -4.1711   -3.1244 C   0  0  0  0  0  0  0  0  0  0  0  0
  -12.2463   -4.8190   -5.1346 O   0  0  0  0  0  0  0  0  0  0  0  0
  -12.2603   -4.8838   -6.4958 C   0  0  0  0  0  0  0  0  0  0  0  0
  1  2  2  0
  2  3  1  0
  2 16  1  0
  3  4  1  0
  3  6  2  0
  4  5  1  0
  6  7  1  0
  7 15  1  0
  7  8  1  0
 11 12  1  0
 12 28  1  0
 12 27  1  0
 12 26  1  0
 15 16  1  0
 15 25  2  0
 16 17  1  0
 17 18  1  0
 18 19  1  0
 18 29  1  0
 18 30  1  0
 29 31  1  0
 31 32  2  0
 30 33  1  0
 32 33  1  0
 32 34  1  0
 34 35  1  0
  8  9  2  0
  9 10  1  0
 10 11  2  0
 11 13  1  0
 13 14  2  0
 14  8  1  0
 19 20  2  0
 20 21  1  0
 21 22  2  0
 22 23  1  0
 23 24  2  0
 24 19  1  0
M  END

$$$$
No_159-gen_results_new/Mpro_new_generate_500/2024-01-19-21-58-56/
     RDKit          3D

 35 38  0  0  0  0  0  0  0  0999 V2000
   -9.1300   -2.9100    0.4520 O   0  0  0  0  0  0  0  0  0  0  0  0
  -10.2490   -2.6420    0.1800 C   0  0  0  0  0  0  0  0  0  0  0  0
  -11.3800   -3.0650    1.0860 C   0  0  0  0  0  0  0  0  0  0  0  0
  -11.2000   -3.8390    2.3880 C   0  0  0  0  0  0  0  0  0  0  0  0
  -10.9900   -5.0690    2.3420 N   0  0  0  0  0  0  0  0  0  0  0  0
  -12.7310   -2.7290    0.7330 N   0  0  0  0  0  0  0  0  0  0  0  0
  -12.9960   -1.9940   -0.4510 N   0  0  0  0  0  0  0  0  0  0  0  0
  -14.3580   -1.6940   -0.7530 C   0  0  0  0  0  0  0  0  0  0  0  0
  -15.0390   -0.7180   -0.0560 C   0  0  0  0  0  0  0  0  0  0  0  0
  -16.3510   -0.4690   -0.3980 C   0  0  0  0  0  0  0  0  0  0  0  0
  -16.9430   -1.2030   -1.4080 C   0  0  0  0  0  0  0  0  0  0  0  0
  -18.3840   -0.9560   -1.8060 C   0  0  0  0  0  0  0  0  0  0  0  0
  -16.2510   -2.1690   -2.1000 C   0  0  0  0  0  0  0  0  0  0  0  0
  -14.9490   -2.4160   -1.7590 C   0  0  0  0  0  0  0  0  0  0  0  0
  -11.9050   -1.5730   -1.3540 C   0  0  0  0  0  0  0  0  0  0  0  0
  -10.5280   -1.9050   -1.0240 N   0  0  0  0  0  0  0  0  0  0  0  0
   -9.4550   -1.4720   -1.9190 C   0  0  0  0  0  0  0  0  0  0  0  0
   -9.2820   -2.3940   -3.1270 C   0  0  0  0  0  0  0  0  0  0  0  0
   -7.8170   -2.5500   -3.5360 C   0  0  0  0  0  0  0  0  0  0  0  0
   -6.9720   -3.3210   -2.7550 C   0  0  0  0  0  0  0  0  0  0  0  0
   -5.6390   -3.4770   -3.1110 C   0  0  0  0  0  0  0  0  0  0  0  0
   -5.1940   -2.8390   -4.2640 C   0  0  0  0  0  0  0  0  0  0  0  0
   -6.0850   -2.0780   -5.0070 C   0  0  0  0  0  0  0  0  0  0  0  0
   -7.3470   -1.9600   -4.6270 N   0  0  0  0  0  0  0  0  0  0  0  0
  -12.1450   -0.9640   -2.3390 O   0  0  0  0  0  0  0  0  0  0  0  0
  -18.7610   -1.8760   -2.7390 F   0  0  0  0  0  0  0  0  0  0  0  0
  -18.4550    0.3250   -2.2750 F   0  0  0  0  0  0  0  0  0  0  0  0
  -19.1950   -1.1300   -0.7370 F   0  0  0  0  0  0  0  0  0  0  0  0
   -9.7920   -3.7475   -2.8656 C   0  0  0  0  0  0  0  0  0  0  0  0
  -10.1112   -2.1676   -4.1288 O   0  0  0  0  0  0  0  0  0  0  0  0
  -10.9497   -3.1465   -4.8669 C   0  0  0  0  0  0  0  0  0  0  0  0
  -10.7072   -4.3469   -4.0155 C   0  0  0  0  0  0  0  0  0  0  0  0
  -12.1088   -4.7670   -3.4938 C   0  0  0  0  0  0  0  0  0  0  0  0
  -12.8957   -5.6995   -4.2421 C   0  0  0  0  0  0  0  0  0  0  0  0
  -14.1856   -6.0802   -3.6206 C   0  0  0  0  0  0  0  0  0  0  0  0
  1  2  2  0
  2  3  1  0
  2 16  1  0
  3  4  1  0
  3  6  2  0
  4  5  1  0
  6  7  1  0
  7 15  1  0
  7  8  1  0
 11 12  1  0
 12 28  1  0
 12 27  1  0
 12 26  1  0
 15 16  1  0
 15 25  2  0
 16 17  1  0
 17 18  1  0
 18 19  1  0
 18 29  1  0
 18 30  1  0
 30 31  1  0
 29 32  1  0
 31 32  1  0
 32 33  1  0
 33 34  2  3
 34 35  1  0
  8  9  2  0
  9 10  1  0
 10 11  2  0
 11 13  1  0
 13 14  2  0
 14  8  1  0
 19 20  2  0
 20 21  1  0
 21 22  2  0
 22 23  1  0
 23 24  2  0
 24 19  1  0
M  END

$$$$
No_160-gen_results_new/Mpro_new_generate_500/2024-01-19-21-58-56/
     RDKit          3D

 31 33  0  0  0  0  0  0  0  0999 V2000
   -9.1300   -2.9100    0.4520 O   0  0  0  0  0  0  0  0  0  0  0  0
  -10.2490   -2.6420    0.1800 C   0  0  0  0  0  0  0  0  0  0  0  0
  -11.3800   -3.0650    1.0860 C   0  0  0  0  0  0  0  0  0  0  0  0
  -11.2000   -3.8390    2.3880 C   0  0  0  0  0  0  0  0  0  0  0  0
  -10.9900   -5.0690    2.3420 N   0  0  0  0  0  0  0  0  0  0  0  0
  -12.7310   -2.7290    0.7330 N   0  0  0  0  0  0  0  0  0  0  0  0
  -12.9960   -1.9940   -0.4510 N   0  0  0  0  0  0  0  0  0  0  0  0
  -14.3580   -1.6940   -0.7530 C   0  0  0  0  0  0  0  0  0  0  0  0
  -15.0390   -0.7180   -0.0560 C   0  0  0  0  0  0  0  0  0  0  0  0
  -16.3510   -0.4690   -0.3980 C   0  0  0  0  0  0  0  0  0  0  0  0
  -16.9430   -1.2030   -1.4080 C   0  0  0  0  0  0  0  0  0  0  0  0
  -18.3840   -0.9560   -1.8060 C   0  0  0  0  0  0  0  0  0  0  0  0
  -16.2510   -2.1690   -2.1000 C   0  0  0  0  0  0  0  0  0  0  0  0
  -14.9490   -2.4160   -1.7590 C   0  0  0  0  0  0  0  0  0  0  0  0
  -11.9050   -1.5730   -1.3540 C   0  0  0  0  0  0  0  0  0  0  0  0
  -10.5280   -1.9050   -1.0240 N   0  0  0  0  0  0  0  0  0  0  0  0
   -9.4550   -1.4720   -1.9190 C   0  0  0  0  0  0  0  0  0  0  0  0
   -9.2820   -2.3940   -3.1270 C   0  0  0  0  0  0  0  0  0  0  0  0
   -7.8170   -2.5500   -3.5360 C   0  0  0  0  0  0  0  0  0  0  0  0
   -6.9720   -3.3210   -2.7550 C   0  0  0  0  0  0  0  0  0  0  0  0
   -5.6390   -3.4770   -3.1110 C   0  0  0  0  0  0  0  0  0  0  0  0
   -5.1940   -2.8390   -4.2640 C   0  0  0  0  0  0  0  0  0  0  0  0
   -6.0850   -2.0780   -5.0070 C   0  0  0  0  0  0  0  0  0  0  0  0
   -7.3470   -1.9600   -4.6270 N   0  0  0  0  0  0  0  0  0  0  0  0
  -12.1450   -0.9640   -2.3390 O   0  0  0  0  0  0  0  0  0  0  0  0
  -18.7610   -1.8760   -2.7390 F   0  0  0  0  0  0  0  0  0  0  0  0
  -18.4550    0.3250   -2.2750 F   0  0  0  0  0  0  0  0  0  0  0  0
  -19.1950   -1.1300   -0.7370 F   0  0  0  0  0  0  0  0  0  0  0  0
  -10.1467   -3.0903   -3.8357 C   0  0  0  0  0  0  0  0  0  0  0  0
  -10.1176   -2.2481   -3.6828 S   0  0  0  0  0  0  0  0  0  0  0  0
  -10.7336   -1.1649   -4.5172 O   0  0  0  0  0  0  0  0  0  0  0  0
  1  2  2  0
  2  3  1  0
  2 16  1  0
  3  4  1  0
  3  6  2  0
  4  5  1  0
  6  7  1  0
  7 15  1  0
  7  8  1  0
 11 12  1  0
 12 28  1  0
 12 27  1  0
 12 26  1  0
 15 16  1  0
 15 25  2  0
 16 17  1  0
 17 18  1  0
 18 19  1  0
 18 29  1  0
 18 30  1  0
 30 31  2  0
  8  9  2  0
  9 10  1  0
 10 11  2  0
 11 13  1  0
 13 14  2  0
 14  8  1  0
 19 20  2  0
 20 21  1  0
 21 22  2  0
 22 23  1  0
 23 24  2  0
 24 19  1  0
M  END

$$$$
No_161-gen_results_new/Mpro_new_generate_500/2024-01-19-21-58-56/
     RDKit          3D

 35 37  0  0  0  0  0  0  0  0999 V2000
   -9.1300   -2.9100    0.4520 O   0  0  0  0  0  0  0  0  0  0  0  0
  -10.2490   -2.6420    0.1800 C   0  0  0  0  0  0  0  0  0  0  0  0
  -11.3800   -3.0650    1.0860 C   0  0  0  0  0  0  0  0  0  0  0  0
  -11.2000   -3.8390    2.3880 C   0  0  0  0  0  0  0  0  0  0  0  0
  -10.9900   -5.0690    2.3420 N   0  0  0  0  0  0  0  0  0  0  0  0
  -12.7310   -2.7290    0.7330 N   0  0  0  0  0  0  0  0  0  0  0  0
  -12.9960   -1.9940   -0.4510 N   0  0  0  0  0  0  0  0  0  0  0  0
  -14.3580   -1.6940   -0.7530 C   0  0  0  0  0  0  0  0  0  0  0  0
  -15.0390   -0.7180   -0.0560 C   0  0  0  0  0  0  0  0  0  0  0  0
  -16.3510   -0.4690   -0.3980 C   0  0  0  0  0  0  0  0  0  0  0  0
  -16.9430   -1.2030   -1.4080 C   0  0  0  0  0  0  0  0  0  0  0  0
  -18.3840   -0.9560   -1.8060 C   0  0  0  0  0  0  0  0  0  0  0  0
  -16.2510   -2.1690   -2.1000 C   0  0  0  0  0  0  0  0  0  0  0  0
  -14.9490   -2.4160   -1.7590 C   0  0  0  0  0  0  0  0  0  0  0  0
  -11.9050   -1.5730   -1.3540 C   0  0  0  0  0  0  0  0  0  0  0  0
  -10.5280   -1.9050   -1.0240 N   0  0  0  0  0  0  0  0  0  0  0  0
   -9.4550   -1.4720   -1.9190 C   0  0  0  0  0  0  0  0  0  0  0  0
   -9.2820   -2.3940   -3.1270 C   0  0  0  0  0  0  0  0  0  0  0  0
   -7.8170   -2.5500   -3.5360 C   0  0  0  0  0  0  0  0  0  0  0  0
   -6.9720   -3.3210   -2.7550 C   0  0  0  0  0  0  0  0  0  0  0  0
   -5.6390   -3.4770   -3.1110 C   0  0  0  0  0  0  0  0  0  0  0  0
   -5.1940   -2.8390   -4.2640 C   0  0  0  0  0  0  0  0  0  0  0  0
   -6.0850   -2.0780   -5.0070 C   0  0  0  0  0  0  0  0  0  0  0  0
   -7.3470   -1.9600   -4.6270 N   0  0  0  0  0  0  0  0  0  0  0  0
  -12.1450   -0.9640   -2.3390 O   0  0  0  0  0  0  0  0  0  0  0  0
  -18.7610   -1.8760   -2.7390 F   0  0  0  0  0  0  0  0  0  0  0  0
  -18.4550    0.3250   -2.2750 F   0  0  0  0  0  0  0  0  0  0  0  0
  -19.1950   -1.1300   -0.7370 F   0  0  0  0  0  0  0  0  0  0  0  0
   -9.7920   -3.7475   -2.8656 C   0  0  0  0  0  0  0  0  0  0  0  0
  -10.1387   -2.0206   -4.2903 C   0  0  0  0  0  0  0  0  0  0  0  0
  -10.1257   -4.6809   -3.9732 C   0  0  0  0  0  0  0  0  0  0  0  0
  -10.4412   -6.0367   -3.7326 C   0  0  0  0  0  0  0  0  0  0  0  0
  -10.7807   -6.3989   -4.8805 F   0  0  0  0  0  0  0  0  0  0  0  0
   -9.2360   -6.4261   -3.3088 F   0  0  0  0  0  0  0  0  0  0  0  0
  -11.0792   -5.9976   -2.7198 F   0  0  0  0  0  0  0  0  0  0  0  0
  1  2  2  0
  2  3  1  0
  2 16  1  0
  3  4  1  0
  3  6  2  0
  4  5  1  0
  6  7  1  0
  7 15  1  0
  7  8  1  0
 11 12  1  0
 12 28  1  0
 12 27  1  0
 12 26  1  0
 15 16  1  0
 15 25  2  0
 16 17  1  0
 17 18  1  0
 18 19  1  0
 18 29  1  0
 18 30  1  0
 29 31  2  3
 31 32  1  0
 32 33  1  0
 32 34  1  0
 32 35  1  0
  8  9  2  0
  9 10  1  0
 10 11  2  0
 11 13  1  0
 13 14  2  0
 14  8  1  0
 19 20  2  0
 20 21  1  0
 21 22  2  0
 22 23  1  0
 23 24  2  0
 24 19  1  0
M  END

$$$$
No_162-gen_results_new/Mpro_new_generate_500/2024-01-19-21-58-56/
     RDKit          3D

 33 35  0  0  0  0  0  0  0  0999 V2000
   -9.1300   -2.9100    0.4520 O   0  0  0  0  0  0  0  0  0  0  0  0
  -10.2490   -2.6420    0.1800 C   0  0  0  0  0  0  0  0  0  0  0  0
  -11.3800   -3.0650    1.0860 C   0  0  0  0  0  0  0  0  0  0  0  0
  -11.2000   -3.8390    2.3880 C   0  0  0  0  0  0  0  0  0  0  0  0
  -10.9900   -5.0690    2.3420 N   0  0  0  0  0  0  0  0  0  0  0  0
  -12.7310   -2.7290    0.7330 N   0  0  0  0  0  0  0  0  0  0  0  0
  -12.9960   -1.9940   -0.4510 N   0  0  0  0  0  0  0  0  0  0  0  0
  -14.3580   -1.6940   -0.7530 C   0  0  0  0  0  0  0  0  0  0  0  0
  -15.0390   -0.7180   -0.0560 C   0  0  0  0  0  0  0  0  0  0  0  0
  -16.3510   -0.4690   -0.3980 C   0  0  0  0  0  0  0  0  0  0  0  0
  -16.9430   -1.2030   -1.4080 C   0  0  0  0  0  0  0  0  0  0  0  0
  -18.3840   -0.9560   -1.8060 C   0  0  0  0  0  0  0  0  0  0  0  0
  -16.2510   -2.1690   -2.1000 C   0  0  0  0  0  0  0  0  0  0  0  0
  -14.9490   -2.4160   -1.7590 C   0  0  0  0  0  0  0  0  0  0  0  0
  -11.9050   -1.5730   -1.3540 C   0  0  0  0  0  0  0  0  0  0  0  0
  -10.5280   -1.9050   -1.0240 N   0  0  0  0  0  0  0  0  0  0  0  0
   -9.4550   -1.4720   -1.9190 C   0  0  0  0  0  0  0  0  0  0  0  0
   -9.2820   -2.3940   -3.1270 C   0  0  0  0  0  0  0  0  0  0  0  0
   -7.8170   -2.5500   -3.5360 C   0  0  0  0  0  0  0  0  0  0  0  0
   -6.9720   -3.3210   -2.7550 C   0  0  0  0  0  0  0  0  0  0  0  0
   -5.6390   -3.4770   -3.1110 C   0  0  0  0  0  0  0  0  0  0  0  0
   -5.1940   -2.8390   -4.2640 C   0  0  0  0  0  0  0  0  0  0  0  0
   -6.0850   -2.0780   -5.0070 C   0  0  0  0  0  0  0  0  0  0  0  0
   -7.3470   -1.9600   -4.6270 N   0  0  0  0  0  0  0  0  0  0  0  0
  -12.1450   -0.9640   -2.3390 O   0  0  0  0  0  0  0  0  0  0  0  0
  -18.7610   -1.8760   -2.7390 F   0  0  0  0  0  0  0  0  0  0  0  0
  -18.4550    0.3250   -2.2750 F   0  0  0  0  0  0  0  0  0  0  0  0
  -19.1950   -1.1300   -0.7370 F   0  0  0  0  0  0  0  0  0  0  0  0
  -10.1467   -3.0903   -3.8357 C   0  0  0  0  0  0  0  0  0  0  0  0
  -10.1748   -2.6832   -3.5186 O   0  0  0  0  0  0  0  0  0  0  0  0
  -10.3765   -2.3268   -4.6334 C   0  0  0  0  0  0  0  0  0  0  0  0
   -9.2023   -3.4447   -2.3347 O   0  0  0  0  0  0  0  0  0  0  0  0
   -8.8654   -4.6536   -2.7327 C   0  0  0  0  0  0  0  0  0  0  0  0
  1  2  2  0
  2  3  1  0
  2 16  1  0
  3  4  1  0
  3  6  2  0
  4  5  1  0
  6  7  1  0
  7 15  1  0
  7  8  1  0
 11 12  1  0
 12 28  1  0
 12 27  1  0
 12 26  1  0
 15 16  1  0
 15 25  2  0
 16 17  1  0
 17 18  1  0
 18 19  1  0
 18 29  1  0
 29 30  1  0
 30 31  1  0
 18 32  1  0
 32 33  1  0
  8  9  2  0
  9 10  1  0
 10 11  2  0
 11 13  1  0
 13 14  2  0
 14  8  1  0
 19 20  2  0
 20 21  1  0
 21 22  2  0
 22 23  1  0
 23 24  2  0
 24 19  1  0
M  END

$$$$
No_163-gen_results_new/Mpro_new_generate_500/2024-01-19-21-58-56/
     RDKit          3D

 32 34  0  0  0  0  0  0  0  0999 V2000
   -9.1300   -2.9100    0.4520 O   0  0  0  0  0  0  0  0  0  0  0  0
  -10.2490   -2.6420    0.1800 C   0  0  0  0  0  0  0  0  0  0  0  0
  -11.3800   -3.0650    1.0860 C   0  0  0  0  0  0  0  0  0  0  0  0
  -11.2000   -3.8390    2.3880 C   0  0  0  0  0  0  0  0  0  0  0  0
  -10.9900   -5.0690    2.3420 N   0  0  0  0  0  0  0  0  0  0  0  0
  -12.7310   -2.7290    0.7330 N   0  0  0  0  0  0  0  0  0  0  0  0
  -12.9960   -1.9940   -0.4510 N   0  0  0  0  0  0  0  0  0  0  0  0
  -14.3580   -1.6940   -0.7530 C   0  0  0  0  0  0  0  0  0  0  0  0
  -15.0390   -0.7180   -0.0560 C   0  0  0  0  0  0  0  0  0  0  0  0
  -16.3510   -0.4690   -0.3980 C   0  0  0  0  0  0  0  0  0  0  0  0
  -16.9430   -1.2030   -1.4080 C   0  0  0  0  0  0  0  0  0  0  0  0
  -18.3840   -0.9560   -1.8060 C   0  0  0  0  0  0  0  0  0  0  0  0
  -16.2510   -2.1690   -2.1000 C   0  0  0  0  0  0  0  0  0  0  0  0
  -14.9490   -2.4160   -1.7590 C   0  0  0  0  0  0  0  0  0  0  0  0
  -11.9050   -1.5730   -1.3540 C   0  0  0  0  0  0  0  0  0  0  0  0
  -10.5280   -1.9050   -1.0240 N   0  0  0  0  0  0  0  0  0  0  0  0
   -9.4550   -1.4720   -1.9190 C   0  0  0  0  0  0  0  0  0  0  0  0
   -9.2820   -2.3940   -3.1270 C   0  0  0  0  0  0  0  0  0  0  0  0
   -7.8170   -2.5500   -3.5360 C   0  0  0  0  0  0  0  0  0  0  0  0
   -6.9720   -3.3210   -2.7550 C   0  0  0  0  0  0  0  0  0  0  0  0
   -5.6390   -3.4770   -3.1110 C   0  0  0  0  0  0  0  0  0  0  0  0
   -5.1940   -2.8390   -4.2640 C   0  0  0  0  0  0  0  0  0  0  0  0
   -6.0850   -2.0780   -5.0070 C   0  0  0  0  0  0  0  0  0  0  0  0
   -7.3470   -1.9600   -4.6270 N   0  0  0  0  0  0  0  0  0  0  0  0
  -12.1450   -0.9640   -2.3390 O   0  0  0  0  0  0  0  0  0  0  0  0
  -18.7610   -1.8760   -2.7390 F   0  0  0  0  0  0  0  0  0  0  0  0
  -18.4550    0.3250   -2.2750 F   0  0  0  0  0  0  0  0  0  0  0  0
  -19.1950   -1.1300   -0.7370 F   0  0  0  0  0  0  0  0  0  0  0  0
   -9.7920   -3.7475   -2.8656 C   0  0  0  0  0  0  0  0  0  0  0  0
  -10.0717   -1.8029   -4.3549 C   0  0  0  0  0  0  0  0  0  0  0  0
   -9.2295   -4.7877   -2.1591 C   0  0  0  0  0  0  0  0  0  0  0  0
  -11.0238   -3.8375   -2.7916 F   0  0  0  0  0  0  0  0  0  0  0  0
  1  2  2  0
  2  3  1  0
  2 16  1  0
  3  4  1  0
  3  6  2  0
  4  5  1  0
  6  7  1  0
  7 15  1  0
  7  8  1  0
 11 12  1  0
 12 28  1  0
 12 27  1  0
 12 26  1  0
 15 16  1  0
 15 25  2  0
 16 17  1  0
 17 18  1  0
 18 19  1  0
 18 29  1  0
 18 30  1  0
 29 31  2  0
 29 32  1  0
  8  9  2  0
  9 10  1  0
 10 11  2  0
 11 13  1  0
 13 14  2  0
 14  8  1  0
 19 20  2  0
 20 21  1  0
 21 22  2  0
 22 23  1  0
 23 24  2  0
 24 19  1  0
M  END

$$$$
No_164-gen_results_new/Mpro_new_generate_500/2024-01-19-21-58-56/
     RDKit          3D

 35 37  0  0  0  0  0  0  0  0999 V2000
   -9.1300   -2.9100    0.4520 O   0  0  0  0  0  0  0  0  0  0  0  0
  -10.2490   -2.6420    0.1800 C   0  0  0  0  0  0  0  0  0  0  0  0
  -11.3800   -3.0650    1.0860 C   0  0  0  0  0  0  0  0  0  0  0  0
  -11.2000   -3.8390    2.3880 C   0  0  0  0  0  0  0  0  0  0  0  0
  -10.9900   -5.0690    2.3420 N   0  0  0  0  0  0  0  0  0  0  0  0
  -12.7310   -2.7290    0.7330 N   0  0  0  0  0  0  0  0  0  0  0  0
  -12.9960   -1.9940   -0.4510 N   0  0  0  0  0  0  0  0  0  0  0  0
  -14.3580   -1.6940   -0.7530 C   0  0  0  0  0  0  0  0  0  0  0  0
  -15.0390   -0.7180   -0.0560 C   0  0  0  0  0  0  0  0  0  0  0  0
  -16.3510   -0.4690   -0.3980 C   0  0  0  0  0  0  0  0  0  0  0  0
  -16.9430   -1.2030   -1.4080 C   0  0  0  0  0  0  0  0  0  0  0  0
  -18.3840   -0.9560   -1.8060 C   0  0  0  0  0  0  0  0  0  0  0  0
  -16.2510   -2.1690   -2.1000 C   0  0  0  0  0  0  0  0  0  0  0  0
  -14.9490   -2.4160   -1.7590 C   0  0  0  0  0  0  0  0  0  0  0  0
  -11.9050   -1.5730   -1.3540 C   0  0  0  0  0  0  0  0  0  0  0  0
  -10.5280   -1.9050   -1.0240 N   0  0  0  0  0  0  0  0  0  0  0  0
   -9.4550   -1.4720   -1.9190 C   0  0  0  0  0  0  0  0  0  0  0  0
   -9.2820   -2.3940   -3.1270 C   0  0  0  0  0  0  0  0  0  0  0  0
   -7.8170   -2.5500   -3.5360 C   0  0  0  0  0  0  0  0  0  0  0  0
   -6.9720   -3.3210   -2.7550 C   0  0  0  0  0  0  0  0  0  0  0  0
   -5.6390   -3.4770   -3.1110 C   0  0  0  0  0  0  0  0  0  0  0  0
   -5.1940   -2.8390   -4.2640 C   0  0  0  0  0  0  0  0  0  0  0  0
   -6.0850   -2.0780   -5.0070 C   0  0  0  0  0  0  0  0  0  0  0  0
   -7.3470   -1.9600   -4.6270 N   0  0  0  0  0  0  0  0  0  0  0  0
  -12.1450   -0.9640   -2.3390 O   0  0  0  0  0  0  0  0  0  0  0  0
  -18.7610   -1.8760   -2.7390 F   0  0  0  0  0  0  0  0  0  0  0  0
  -18.4550    0.3250   -2.2750 F   0  0  0  0  0  0  0  0  0  0  0  0
  -19.1950   -1.1300   -0.7370 F   0  0  0  0  0  0  0  0  0  0  0  0
  -10.0453   -2.0069   -4.3181 C   0  0  0  0  0  0  0  0  0  0  0  0
   -9.8476   -3.8948   -2.8015 C   0  0  0  0  0  0  0  0  0  0  0  0
  -10.1714   -4.7331   -3.9309 C   0  0  0  0  0  0  0  0  0  0  0  0
  -10.2051   -6.2008   -3.5771 C   0  0  0  0  0  0  0  0  0  0  0  0
   -8.7202   -6.6189   -3.3086 C   0  0  0  0  0  0  0  0  0  0  0  0
   -8.4800   -7.0256   -2.0252 N   0  0  0  0  0  0  0  0  0  0  0  0
   -7.6764   -6.8717   -4.2683 C   0  0  0  0  0  0  0  0  0  0  0  0
  1  2  2  0
  2  3  1  0
  2 16  1  0
  3  4  1  0
  3  6  2  0
  4  5  1  0
  6  7  1  0
  7 15  1  0
  7  8  1  0
 11 12  1  0
 12 28  1  0
 12 27  1  0
 12 26  1  0
 15 16  1  0
 15 25  2  0
 16 17  1  0
 17 18  1  0
 18 19  1  0
 18 29  1  0
 18 30  1  0
 30 31  2  3
 31 32  1  0
 32 33  1  0
 33 34  1  0
 33 35  1  0
  8  9  2  0
  9 10  1  0
 10 11  2  0
 11 13  1  0
 13 14  2  0
 14  8  1  0
 19 20  2  0
 20 21  1  0
 21 22  2  0
 22 23  1  0
 23 24  2  0
 24 19  1  0
M  END

$$$$
No_165-gen_results_new/Mpro_new_generate_500/2024-01-19-21-58-56/
     RDKit          3D

 32 34  0  0  0  0  0  0  0  0999 V2000
   -9.1300   -2.9100    0.4520 O   0  0  0  0  0  0  0  0  0  0  0  0
  -10.2490   -2.6420    0.1800 C   0  0  0  0  0  0  0  0  0  0  0  0
  -11.3800   -3.0650    1.0860 C   0  0  0  0  0  0  0  0  0  0  0  0
  -11.2000   -3.8390    2.3880 C   0  0  0  0  0  0  0  0  0  0  0  0
  -10.9900   -5.0690    2.3420 N   0  0  0  0  0  0  0  0  0  0  0  0
  -12.7310   -2.7290    0.7330 N   0  0  0  0  0  0  0  0  0  0  0  0
  -12.9960   -1.9940   -0.4510 N   0  0  0  0  0  0  0  0  0  0  0  0
  -14.3580   -1.6940   -0.7530 C   0  0  0  0  0  0  0  0  0  0  0  0
  -15.0390   -0.7180   -0.0560 C   0  0  0  0  0  0  0  0  0  0  0  0
  -16.3510   -0.4690   -0.3980 C   0  0  0  0  0  0  0  0  0  0  0  0
  -16.9430   -1.2030   -1.4080 C   0  0  0  0  0  0  0  0  0  0  0  0
  -18.3840   -0.9560   -1.8060 C   0  0  0  0  0  0  0  0  0  0  0  0
  -16.2510   -2.1690   -2.1000 C   0  0  0  0  0  0  0  0  0  0  0  0
  -14.9490   -2.4160   -1.7590 C   0  0  0  0  0  0  0  0  0  0  0  0
  -11.9050   -1.5730   -1.3540 C   0  0  0  0  0  0  0  0  0  0  0  0
  -10.5280   -1.9050   -1.0240 N   0  0  0  0  0  0  0  0  0  0  0  0
   -9.4550   -1.4720   -1.9190 C   0  0  0  0  0  0  0  0  0  0  0  0
   -9.2820   -2.3940   -3.1270 C   0  0  0  0  0  0  0  0  0  0  0  0
   -7.8170   -2.5500   -3.5360 C   0  0  0  0  0  0  0  0  0  0  0  0
   -6.9720   -3.3210   -2.7550 C   0  0  0  0  0  0  0  0  0  0  0  0
   -5.6390   -3.4770   -3.1110 C   0  0  0  0  0  0  0  0  0  0  0  0
   -5.1940   -2.8390   -4.2640 C   0  0  0  0  0  0  0  0  0  0  0  0
   -6.0850   -2.0780   -5.0070 C   0  0  0  0  0  0  0  0  0  0  0  0
   -7.3470   -1.9600   -4.6270 N   0  0  0  0  0  0  0  0  0  0  0  0
  -12.1450   -0.9640   -2.3390 O   0  0  0  0  0  0  0  0  0  0  0  0
  -18.7610   -1.8760   -2.7390 F   0  0  0  0  0  0  0  0  0  0  0  0
  -18.4550    0.3250   -2.2750 F   0  0  0  0  0  0  0  0  0  0  0  0
  -19.1950   -1.1300   -0.7370 F   0  0  0  0  0  0  0  0  0  0  0  0
  -10.0899   -3.0088   -3.7244 O   0  0  0  0  0  0  0  0  0  0  0  0
  -16.7218   -3.1500   -3.0074 O   0  0  0  0  0  0  0  0  0  0  0  0
  -16.4149   -4.4811   -2.9202 C   0  0  0  0  0  0  0  0  0  0  0  0
  -15.8989   -4.6602   -4.0984 O   0  0  0  0  0  0  0  0  0  0  0  0
  1  2  2  0
  2  3  1  0
  2 16  1  0
  3  4  1  0
  3  6  2  0
  4  5  1  0
  6  7  1  0
  7 15  1  0
  7  8  1  0
 11 12  1  0
 12 28  1  0
 12 27  1  0
 12 26  1  0
 15 16  1  0
 15 25  2  0
 16 17  1  0
 17 18  1  0
 18 19  1  0
 18 29  2  0
 13 30  1  0
 30 31  1  0
 31 32  2  0
  8  9  2  0
  9 10  1  0
 10 11  2  0
 11 13  1  0
 13 14  2  0
 14  8  1  0
 19 20  2  0
 20 21  1  0
 21 22  2  0
 22 23  1  0
 23 24  2  0
 24 19  1  0
M  END

$$$$
No_166-gen_results_new/Mpro_new_generate_500/2024-01-19-21-58-56/
     RDKit          3D

 34 36  0  0  0  0  0  0  0  0999 V2000
   -9.1300   -2.9100    0.4520 O   0  0  0  0  0  0  0  0  0  0  0  0
  -10.2490   -2.6420    0.1800 C   0  0  0  0  0  0  0  0  0  0  0  0
  -11.3800   -3.0650    1.0860 C   0  0  0  0  0  0  0  0  0  0  0  0
  -11.2000   -3.8390    2.3880 C   0  0  0  0  0  0  0  0  0  0  0  0
  -10.9900   -5.0690    2.3420 N   0  0  0  0  0  0  0  0  0  0  0  0
  -12.7310   -2.7290    0.7330 N   0  0  0  0  0  0  0  0  0  0  0  0
  -12.9960   -1.9940   -0.4510 N   0  0  0  0  0  0  0  0  0  0  0  0
  -14.3580   -1.6940   -0.7530 C   0  0  0  0  0  0  0  0  0  0  0  0
  -15.0390   -0.7180   -0.0560 C   0  0  0  0  0  0  0  0  0  0  0  0
  -16.3510   -0.4690   -0.3980 C   0  0  0  0  0  0  0  0  0  0  0  0
  -16.9430   -1.2030   -1.4080 C   0  0  0  0  0  0  0  0  0  0  0  0
  -18.3840   -0.9560   -1.8060 C   0  0  0  0  0  0  0  0  0  0  0  0
  -16.2510   -2.1690   -2.1000 C   0  0  0  0  0  0  0  0  0  0  0  0
  -14.9490   -2.4160   -1.7590 C   0  0  0  0  0  0  0  0  0  0  0  0
  -11.9050   -1.5730   -1.3540 C   0  0  0  0  0  0  0  0  0  0  0  0
  -10.5280   -1.9050   -1.0240 N   0  0  0  0  0  0  0  0  0  0  0  0
   -9.4550   -1.4720   -1.9190 C   0  0  0  0  0  0  0  0  0  0  0  0
   -9.2820   -2.3940   -3.1270 C   0  0  0  0  0  0  0  0  0  0  0  0
   -7.8170   -2.5500   -3.5360 C   0  0  0  0  0  0  0  0  0  0  0  0
   -6.9720   -3.3210   -2.7550 C   0  0  0  0  0  0  0  0  0  0  0  0
   -5.6390   -3.4770   -3.1110 C   0  0  0  0  0  0  0  0  0  0  0  0
   -5.1940   -2.8390   -4.2640 C   0  0  0  0  0  0  0  0  0  0  0  0
   -6.0850   -2.0780   -5.0070 C   0  0  0  0  0  0  0  0  0  0  0  0
   -7.3470   -1.9600   -4.6270 N   0  0  0  0  0  0  0  0  0  0  0  0
  -12.1450   -0.9640   -2.3390 O   0  0  0  0  0  0  0  0  0  0  0  0
  -18.7610   -1.8760   -2.7390 F   0  0  0  0  0  0  0  0  0  0  0  0
  -18.4550    0.3250   -2.2750 F   0  0  0  0  0  0  0  0  0  0  0  0
  -19.1950   -1.1300   -0.7370 F   0  0  0  0  0  0  0  0  0  0  0  0
   -9.7920   -3.7475   -2.8656 C   0  0  0  0  0  0  0  0  0  0  0  0
  -10.0268   -1.9037   -4.2201 F   0  0  0  0  0  0  0  0  0  0  0  0
   -9.2446   -4.8373   -2.2763 C   0  0  0  0  0  0  0  0  0  0  0  0
  -10.4710   -4.1958   -3.8302 F   0  0  0  0  0  0  0  0  0  0  0  0
  -11.0112   -3.6381   -2.0147 F   0  0  0  0  0  0  0  0  0  0  0  0
  -16.7642   -2.9970   -3.1029 F   0  0  0  0  0  0  0  0  0  0  0  0
  1  2  2  0
  2  3  1  0
  2 16  1  0
  3  4  1  0
  3  6  2  0
  4  5  1  0
  6  7  1  0
  7 15  1  0
  7  8  1  0
 11 12  1  0
 12 28  1  0
 12 27  1  0
 12 26  1  0
 15 16  1  0
 15 25  2  0
 16 17  1  0
 17 18  1  0
 18 19  1  0
 18 29  1  0
 18 30  1  0
 29 31  1  0
 29 32  1  0
 29 33  1  0
 13 34  1  0
  8  9  2  0
  9 10  1  0
 10 11  2  0
 11 13  1  0
 13 14  2  0
 14  8  1  0
 19 20  2  0
 20 21  1  0
 21 22  2  0
 22 23  1  0
 23 24  2  0
 24 19  1  0
M  END

$$$$
No_167-gen_results_new/Mpro_new_generate_500/2024-01-19-21-58-56/
     RDKit          3D

 35 37  0  0  0  0  0  0  0  0999 V2000
   -9.1300   -2.9100    0.4520 O   0  0  0  0  0  0  0  0  0  0  0  0
  -10.2490   -2.6420    0.1800 C   0  0  0  0  0  0  0  0  0  0  0  0
  -11.3800   -3.0650    1.0860 C   0  0  0  0  0  0  0  0  0  0  0  0
  -11.2000   -3.8390    2.3880 C   0  0  0  0  0  0  0  0  0  0  0  0
  -10.9900   -5.0690    2.3420 N   0  0  0  0  0  0  0  0  0  0  0  0
  -12.7310   -2.7290    0.7330 N   0  0  0  0  0  0  0  0  0  0  0  0
  -12.9960   -1.9940   -0.4510 N   0  0  0  0  0  0  0  0  0  0  0  0
  -14.3580   -1.6940   -0.7530 C   0  0  0  0  0  0  0  0  0  0  0  0
  -15.0390   -0.7180   -0.0560 C   0  0  0  0  0  0  0  0  0  0  0  0
  -16.3510   -0.4690   -0.3980 C   0  0  0  0  0  0  0  0  0  0  0  0
  -16.9430   -1.2030   -1.4080 C   0  0  0  0  0  0  0  0  0  0  0  0
  -18.3840   -0.9560   -1.8060 C   0  0  0  0  0  0  0  0  0  0  0  0
  -16.2510   -2.1690   -2.1000 C   0  0  0  0  0  0  0  0  0  0  0  0
  -14.9490   -2.4160   -1.7590 C   0  0  0  0  0  0  0  0  0  0  0  0
  -11.9050   -1.5730   -1.3540 C   0  0  0  0  0  0  0  0  0  0  0  0
  -10.5280   -1.9050   -1.0240 N   0  0  0  0  0  0  0  0  0  0  0  0
   -9.4550   -1.4720   -1.9190 C   0  0  0  0  0  0  0  0  0  0  0  0
   -9.2820   -2.3940   -3.1270 C   0  0  0  0  0  0  0  0  0  0  0  0
   -7.8170   -2.5500   -3.5360 C   0  0  0  0  0  0  0  0  0  0  0  0
   -6.9720   -3.3210   -2.7550 C   0  0  0  0  0  0  0  0  0  0  0  0
   -5.6390   -3.4770   -3.1110 C   0  0  0  0  0  0  0  0  0  0  0  0
   -5.1940   -2.8390   -4.2640 C   0  0  0  0  0  0  0  0  0  0  0  0
   -6.0850   -2.0780   -5.0070 C   0  0  0  0  0  0  0  0  0  0  0  0
   -7.3470   -1.9600   -4.6270 N   0  0  0  0  0  0  0  0  0  0  0  0
  -12.1450   -0.9640   -2.3390 O   0  0  0  0  0  0  0  0  0  0  0  0
  -18.7610   -1.8760   -2.7390 F   0  0  0  0  0  0  0  0  0  0  0  0
  -18.4550    0.3250   -2.2750 F   0  0  0  0  0  0  0  0  0  0  0  0
  -19.1950   -1.1300   -0.7370 F   0  0  0  0  0  0  0  0  0  0  0  0
   -9.7920   -3.7475   -2.8656 C   0  0  0  0  0  0  0  0  0  0  0  0
  -10.0717   -1.8029   -4.3549 C   0  0  0  0  0  0  0  0  0  0  0  0
   -9.3562   -4.4506   -1.8919 O   0  0  0  0  0  0  0  0  0  0  0  0
  -10.8567   -4.1572   -3.1732 O   0  0  0  0  0  0  0  0  0  0  0  0
  -11.6428   -4.7943   -3.3958 C   0  0  0  0  0  0  0  0  0  0  0  0
  -12.1298   -5.4351   -4.5110 C   0  0  0  0  0  0  0  0  0  0  0  0
  -12.8858   -4.8490   -2.2695 C   0  0  0  0  0  0  0  0  0  0  0  0
  1  2  2  0
  2  3  1  0
  2 16  1  0
  3  4  1  0
  3  6  2  0
  4  5  1  0
  6  7  1  0
  7 15  1  0
  7  8  1  0
 11 12  1  0
 12 28  1  0
 12 27  1  0
 12 26  1  0
 15 16  1  0
 15 25  2  0
 16 17  1  0
 17 18  1  0
 18 19  1  0
 18 29  1  0
 18 30  1  0
 29 31  2  0
 29 32  1  0
 32 33  1  0
 33 34  1  0
 33 35  1  0
  8  9  2  0
  9 10  1  0
 10 11  2  0
 11 13  1  0
 13 14  2  0
 14  8  1  0
 19 20  2  0
 20 21  1  0
 21 22  2  0
 22 23  1  0
 23 24  2  0
 24 19  1  0
M  END

$$$$
No_168-gen_results_new/Mpro_new_generate_500/2024-01-19-21-58-56/
     RDKit          3D

 33 35  0  0  0  0  0  0  0  0999 V2000
   -9.1300   -2.9100    0.4520 O   0  0  0  0  0  0  0  0  0  0  0  0
  -10.2490   -2.6420    0.1800 C   0  0  0  0  0  0  0  0  0  0  0  0
  -11.3800   -3.0650    1.0860 C   0  0  0  0  0  0  0  0  0  0  0  0
  -11.2000   -3.8390    2.3880 C   0  0  0  0  0  0  0  0  0  0  0  0
  -10.9900   -5.0690    2.3420 N   0  0  0  0  0  0  0  0  0  0  0  0
  -12.7310   -2.7290    0.7330 N   0  0  0  0  0  0  0  0  0  0  0  0
  -12.9960   -1.9940   -0.4510 N   0  0  0  0  0  0  0  0  0  0  0  0
  -14.3580   -1.6940   -0.7530 C   0  0  0  0  0  0  0  0  0  0  0  0
  -15.0390   -0.7180   -0.0560 C   0  0  0  0  0  0  0  0  0  0  0  0
  -16.3510   -0.4690   -0.3980 C   0  0  0  0  0  0  0  0  0  0  0  0
  -16.9430   -1.2030   -1.4080 C   0  0  0  0  0  0  0  0  0  0  0  0
  -18.3840   -0.9560   -1.8060 C   0  0  0  0  0  0  0  0  0  0  0  0
  -16.2510   -2.1690   -2.1000 C   0  0  0  0  0  0  0  0  0  0  0  0
  -14.9490   -2.4160   -1.7590 C   0  0  0  0  0  0  0  0  0  0  0  0
  -11.9050   -1.5730   -1.3540 C   0  0  0  0  0  0  0  0  0  0  0  0
  -10.5280   -1.9050   -1.0240 N   0  0  0  0  0  0  0  0  0  0  0  0
   -9.4550   -1.4720   -1.9190 C   0  0  0  0  0  0  0  0  0  0  0  0
   -9.2820   -2.3940   -3.1270 C   0  0  0  0  0  0  0  0  0  0  0  0
   -7.8170   -2.5500   -3.5360 C   0  0  0  0  0  0  0  0  0  0  0  0
   -6.9720   -3.3210   -2.7550 C   0  0  0  0  0  0  0  0  0  0  0  0
   -5.6390   -3.4770   -3.1110 C   0  0  0  0  0  0  0  0  0  0  0  0
   -5.1940   -2.8390   -4.2640 C   0  0  0  0  0  0  0  0  0  0  0  0
   -6.0850   -2.0780   -5.0070 C   0  0  0  0  0  0  0  0  0  0  0  0
   -7.3470   -1.9600   -4.6270 N   0  0  0  0  0  0  0  0  0  0  0  0
  -12.1450   -0.9640   -2.3390 O   0  0  0  0  0  0  0  0  0  0  0  0
  -18.7610   -1.8760   -2.7390 F   0  0  0  0  0  0  0  0  0  0  0  0
  -18.4550    0.3250   -2.2750 F   0  0  0  0  0  0  0  0  0  0  0  0
  -19.1950   -1.1300   -0.7370 F   0  0  0  0  0  0  0  0  0  0  0  0
  -10.1861   -2.0270   -4.5221 S   0  0  0  0  0  0  0  0  0  0  0  0
   -9.7172   -2.8621   -5.6373 O   0  0  0  0  0  0  0  0  0  0  0  0
  -10.0305   -0.3871   -5.0261 C   0  0  0  0  0  0  0  0  0  0  0  0
  -11.5609   -2.4271   -4.3461 O   0  0  0  0  0  0  0  0  0  0  0  0
  -16.7699   -2.9996   -3.1049 F   0  0  0  0  0  0  0  0  0  0  0  0
  1  2  2  0
  2  3  1  0
  2 16  1  0
  3  4  1  0
  3  6  2  0
  4  5  1  0
  6  7  1  0
  7 15  1  0
  7  8  1  0
 11 12  1  0
 12 28  1  0
 12 27  1  0
 12 26  1  0
 15 16  1  0
 15 25  2  0
 16 17  1  0
 17 18  1  0
 18 19  1  0
 18 29  1  0
 29 30  2  0
 29 31  1  0
 29 32  2  0
 13 33  1  0
  8  9  2  0
  9 10  1  0
 10 11  2  0
 11 13  1  0
 13 14  2  0
 14  8  1  0
 19 20  2  0
 20 21  1  0
 21 22  2  0
 22 23  1  0
 23 24  2  0
 24 19  1  0
M  END

$$$$
No_169-gen_results_new/Mpro_new_generate_500/2024-01-19-21-58-56/
     RDKit          3D

 35 38  0  0  0  0  0  0  0  0999 V2000
   -9.1300   -2.9100    0.4520 O   0  0  0  0  0  0  0  0  0  0  0  0
  -10.2490   -2.6420    0.1800 C   0  0  0  0  0  0  0  0  0  0  0  0
  -11.3800   -3.0650    1.0860 C   0  0  0  0  0  0  0  0  0  0  0  0
  -11.2000   -3.8390    2.3880 C   0  0  0  0  0  0  0  0  0  0  0  0
  -10.9900   -5.0690    2.3420 N   0  0  0  0  0  0  0  0  0  0  0  0
  -12.7310   -2.7290    0.7330 N   0  0  0  0  0  0  0  0  0  0  0  0
  -12.9960   -1.9940   -0.4510 N   0  0  0  0  0  0  0  0  0  0  0  0
  -14.3580   -1.6940   -0.7530 C   0  0  0  0  0  0  0  0  0  0  0  0
  -15.0390   -0.7180   -0.0560 C   0  0  0  0  0  0  0  0  0  0  0  0
  -16.3510   -0.4690   -0.3980 C   0  0  0  0  0  0  0  0  0  0  0  0
  -16.9430   -1.2030   -1.4080 C   0  0  0  0  0  0  0  0  0  0  0  0
  -18.3840   -0.9560   -1.8060 C   0  0  0  0  0  0  0  0  0  0  0  0
  -16.2510   -2.1690   -2.1000 C   0  0  0  0  0  0  0  0  0  0  0  0
  -14.9490   -2.4160   -1.7590 C   0  0  0  0  0  0  0  0  0  0  0  0
  -11.9050   -1.5730   -1.3540 C   0  0  0  0  0  0  0  0  0  0  0  0
  -10.5280   -1.9050   -1.0240 N   0  0  0  0  0  0  0  0  0  0  0  0
   -9.4550   -1.4720   -1.9190 C   0  0  0  0  0  0  0  0  0  0  0  0
   -9.2820   -2.3940   -3.1270 C   0  0  0  0  0  0  0  0  0  0  0  0
   -7.8170   -2.5500   -3.5360 C   0  0  0  0  0  0  0  0  0  0  0  0
   -6.9720   -3.3210   -2.7550 C   0  0  0  0  0  0  0  0  0  0  0  0
   -5.6390   -3.4770   -3.1110 C   0  0  0  0  0  0  0  0  0  0  0  0
   -5.1940   -2.8390   -4.2640 C   0  0  0  0  0  0  0  0  0  0  0  0
   -6.0850   -2.0780   -5.0070 C   0  0  0  0  0  0  0  0  0  0  0  0
   -7.3470   -1.9600   -4.6270 N   0  0  0  0  0  0  0  0  0  0  0  0
  -12.1450   -0.9640   -2.3390 O   0  0  0  0  0  0  0  0  0  0  0  0
  -18.7610   -1.8760   -2.7390 F   0  0  0  0  0  0  0  0  0  0  0  0
  -18.4550    0.3250   -2.2750 F   0  0  0  0  0  0  0  0  0  0  0  0
  -19.1950   -1.1300   -0.7370 F   0  0  0  0  0  0  0  0  0  0  0  0
  -10.0453   -2.0069   -4.3181 C   0  0  0  0  0  0  0  0  0  0  0  0
   -9.8476   -3.8948   -2.8015 C   0  0  0  0  0  0  0  0  0  0  0  0
  -10.8670   -3.9285   -2.9143 O   0  0  0  0  0  0  0  0  0  0  0  0
   -9.2185   -4.8116   -2.2228 O   0  0  0  0  0  0  0  0  0  0  0  0
   -9.7784   -5.0572   -0.8635 C   0  0  0  0  0  0  0  0  0  0  0  0
  -10.6212   -5.9024   -0.6205 C   0  0  0  0  0  0  0  0  0  0  0  0
  -10.7265   -6.2568    0.9713 C   0  0  0  0  0  0  0  0  0  0  0  0
  1  2  2  0
  2  3  1  0
  2 16  1  0
  3  4  1  0
  3  6  2  0
  4  5  1  0
  6  7  1  0
  7 15  1  0
  7  8  1  0
 11 12  1  0
 12 28  1  0
 12 27  1  0
 12 26  1  0
 15 16  1  0
 15 25  2  0
 16 17  1  0
 17 18  1  0
 18 19  1  0
 18 29  1  0
 18 30  1  0
 30 31  2  0
 30 32  1  0
 32 33  1  0
 33 34  1  0
  5 35  1  0
 34 35  1  0
  8  9  2  0
  9 10  1  0
 10 11  2  0
 11 13  1  0
 13 14  2  0
 14  8  1  0
 19 20  2  0
 20 21  1  0
 21 22  2  0
 22 23  1  0
 23 24  2  0
 24 19  1  0
M  END

$$$$
No_170-gen_results_new/Mpro_new_generate_500/2024-01-19-21-58-56/
     RDKit          3D

 35 38  0  0  0  0  0  0  0  0999 V2000
   -9.1300   -2.9100    0.4520 O   0  0  0  0  0  0  0  0  0  0  0  0
  -10.2490   -2.6420    0.1800 C   0  0  0  0  0  0  0  0  0  0  0  0
  -11.3800   -3.0650    1.0860 C   0  0  0  0  0  0  0  0  0  0  0  0
  -11.2000   -3.8390    2.3880 C   0  0  0  0  0  0  0  0  0  0  0  0
  -10.9900   -5.0690    2.3420 N   0  0  0  0  0  0  0  0  0  0  0  0
  -12.7310   -2.7290    0.7330 N   0  0  0  0  0  0  0  0  0  0  0  0
  -12.9960   -1.9940   -0.4510 N   0  0  0  0  0  0  0  0  0  0  0  0
  -14.3580   -1.6940   -0.7530 C   0  0  0  0  0  0  0  0  0  0  0  0
  -15.0390   -0.7180   -0.0560 C   0  0  0  0  0  0  0  0  0  0  0  0
  -16.3510   -0.4690   -0.3980 C   0  0  0  0  0  0  0  0  0  0  0  0
  -16.9430   -1.2030   -1.4080 C   0  0  0  0  0  0  0  0  0  0  0  0
  -18.3840   -0.9560   -1.8060 C   0  0  0  0  0  0  0  0  0  0  0  0
  -16.2510   -2.1690   -2.1000 C   0  0  0  0  0  0  0  0  0  0  0  0
  -14.9490   -2.4160   -1.7590 C   0  0  0  0  0  0  0  0  0  0  0  0
  -11.9050   -1.5730   -1.3540 C   0  0  0  0  0  0  0  0  0  0  0  0
  -10.5280   -1.9050   -1.0240 N   0  0  0  0  0  0  0  0  0  0  0  0
   -9.4550   -1.4720   -1.9190 C   0  0  0  0  0  0  0  0  0  0  0  0
   -9.2820   -2.3940   -3.1270 C   0  0  0  0  0  0  0  0  0  0  0  0
   -7.8170   -2.5500   -3.5360 C   0  0  0  0  0  0  0  0  0  0  0  0
   -6.9720   -3.3210   -2.7550 C   0  0  0  0  0  0  0  0  0  0  0  0
   -5.6390   -3.4770   -3.1110 C   0  0  0  0  0  0  0  0  0  0  0  0
   -5.1940   -2.8390   -4.2640 C   0  0  0  0  0  0  0  0  0  0  0  0
   -6.0850   -2.0780   -5.0070 C   0  0  0  0  0  0  0  0  0  0  0  0
   -7.3470   -1.9600   -4.6270 N   0  0  0  0  0  0  0  0  0  0  0  0
  -12.1450   -0.9640   -2.3390 O   0  0  0  0  0  0  0  0  0  0  0  0
  -18.7610   -1.8760   -2.7390 F   0  0  0  0  0  0  0  0  0  0  0  0
  -18.4550    0.3250   -2.2750 F   0  0  0  0  0  0  0  0  0  0  0  0
  -19.1950   -1.1300   -0.7370 F   0  0  0  0  0  0  0  0  0  0  0  0
   -9.7920   -3.7475   -2.8656 C   0  0  0  0  0  0  0  0  0  0  0  0
   -9.9778   -1.5944   -4.2803 C   0  0  0  0  0  0  0  0  0  0  0  0
   -9.9974   -4.6360   -4.1639 C   0  0  0  0  0  0  0  0  0  0  0  0
   -8.9788   -4.6065   -1.9698 C   0  0  0  0  0  0  0  0  0  0  0  0
   -7.4428   -4.3810   -2.1328 C   0  0  0  0  0  0  0  0  0  0  0  0
   -9.3039   -5.9466   -1.8613 O   0  0  0  0  0  0  0  0  0  0  0  0
  -10.0244   -6.2007   -0.6419 C   0  0  0  0  0  0  0  0  0  0  0  0
  1  2  2  0
  2  3  1  0
  2 16  1  0
  3  4  1  0
  3  6  2  0
  4  5  1  0
  6  7  1  0
  7 15  1  0
  7  8  1  0
 11 12  1  0
 12 28  1  0
 12 27  1  0
 12 26  1  0
 15 16  1  0
 15 25  2  0
 16 17  1  0
 17 18  1  0
 18 19  1  0
 18 29  1  0
 18 30  1  0
 29 31  1  0
 29 32  1  0
 20 33  1  0
 32 33  1  0
 32 34  1  0
 34 35  1  0
  8  9  2  0
  9 10  1  0
 10 11  2  0
 11 13  1  0
 13 14  2  0
 14  8  1  0
 19 24  1  0
 24 23  2  0
 23 22  1  0
 22 21  2  0
 21 20  1  0
 20 19  2  0
M  END

$$$$
No_171-gen_results_new/Mpro_new_generate_500/2024-01-19-21-58-56/
     RDKit          3D

 34 36  0  0  0  0  0  0  0  0999 V2000
   -9.1300   -2.9100    0.4520 O   0  0  0  0  0  0  0  0  0  0  0  0
  -10.2490   -2.6420    0.1800 C   0  0  0  0  0  0  0  0  0  0  0  0
  -11.3800   -3.0650    1.0860 C   0  0  0  0  0  0  0  0  0  0  0  0
  -11.2000   -3.8390    2.3880 C   0  0  0  0  0  0  0  0  0  0  0  0
  -10.9900   -5.0690    2.3420 N   0  0  0  0  0  0  0  0  0  0  0  0
  -12.7310   -2.7290    0.7330 N   0  0  0  0  0  0  0  0  0  0  0  0
  -12.9960   -1.9940   -0.4510 N   0  0  0  0  0  0  0  0  0  0  0  0
  -14.3580   -1.6940   -0.7530 C   0  0  0  0  0  0  0  0  0  0  0  0
  -15.0390   -0.7180   -0.0560 C   0  0  0  0  0  0  0  0  0  0  0  0
  -16.3510   -0.4690   -0.3980 C   0  0  0  0  0  0  0  0  0  0  0  0
  -16.9430   -1.2030   -1.4080 C   0  0  0  0  0  0  0  0  0  0  0  0
  -18.3840   -0.9560   -1.8060 C   0  0  0  0  0  0  0  0  0  0  0  0
  -16.2510   -2.1690   -2.1000 C   0  0  0  0  0  0  0  0  0  0  0  0
  -14.9490   -2.4160   -1.7590 C   0  0  0  0  0  0  0  0  0  0  0  0
  -11.9050   -1.5730   -1.3540 C   0  0  0  0  0  0  0  0  0  0  0  0
  -10.5280   -1.9050   -1.0240 N   0  0  0  0  0  0  0  0  0  0  0  0
   -9.4550   -1.4720   -1.9190 C   0  0  0  0  0  0  0  0  0  0  0  0
   -9.2820   -2.3940   -3.1270 C   0  0  0  0  0  0  0  0  0  0  0  0
   -7.8170   -2.5500   -3.5360 C   0  0  0  0  0  0  0  0  0  0  0  0
   -6.9720   -3.3210   -2.7550 C   0  0  0  0  0  0  0  0  0  0  0  0
   -5.6390   -3.4770   -3.1110 C   0  0  0  0  0  0  0  0  0  0  0  0
   -5.1940   -2.8390   -4.2640 C   0  0  0  0  0  0  0  0  0  0  0  0
   -6.0850   -2.0780   -5.0070 C   0  0  0  0  0  0  0  0  0  0  0  0
   -7.3470   -1.9600   -4.6270 N   0  0  0  0  0  0  0  0  0  0  0  0
  -12.1450   -0.9640   -2.3390 O   0  0  0  0  0  0  0  0  0  0  0  0
  -18.7610   -1.8760   -2.7390 F   0  0  0  0  0  0  0  0  0  0  0  0
  -18.4550    0.3250   -2.2750 F   0  0  0  0  0  0  0  0  0  0  0  0
  -19.1950   -1.1300   -0.7370 F   0  0  0  0  0  0  0  0  0  0  0  0
   -9.9592   -1.9070   -4.1913 F   0  0  0  0  0  0  0  0  0  0  0  0
   -9.8855   -3.8565   -2.8874 C   0  0  0  0  0  0  0  0  0  0  0  0
   -9.6226   -4.7258   -3.8672 F   0  0  0  0  0  0  0  0  0  0  0  0
   -9.4485   -4.3988   -1.7545 F   0  0  0  0  0  0  0  0  0  0  0  0
  -11.2472   -3.6664   -2.6897 F   0  0  0  0  0  0  0  0  0  0  0  0
  -16.7449   -3.0045   -3.1129 F   0  0  0  0  0  0  0  0  0  0  0  0
  1  2  2  0
  2  3  1  0
  2 16  1  0
  3  4  1  0
  3  6  2  0
  4  5  1  0
  6  7  1  0
  7 15  1  0
  7  8  1  0
 11 12  1  0
 12 28  1  0
 12 27  1  0
 12 26  1  0
 15 16  1  0
 15 25  2  0
 16 17  1  0
 17 18  1  0
 18 19  1  0
 18 29  1  0
 18 30  1  0
 30 31  1  0
 30 32  1  0
 30 33  1  0
 13 34  1  0
  8  9  2  0
  9 10  1  0
 10 11  2  0
 11 13  1  0
 13 14  2  0
 14  8  1  0
 19 20  2  0
 20 21  1  0
 21 22  2  0
 22 23  1  0
 23 24  2  0
 24 19  1  0
M  END

$$$$
No_172-gen_results_new/Mpro_new_generate_500/2024-01-19-21-58-56/
     RDKit          3D

 35 37  0  0  0  0  0  0  0  0999 V2000
   -9.1300   -2.9100    0.4520 O   0  0  0  0  0  0  0  0  0  0  0  0
  -10.2490   -2.6420    0.1800 C   0  0  0  0  0  0  0  0  0  0  0  0
  -11.3800   -3.0650    1.0860 C   0  0  0  0  0  0  0  0  0  0  0  0
  -11.2000   -3.8390    2.3880 C   0  0  0  0  0  0  0  0  0  0  0  0
  -10.9900   -5.0690    2.3420 N   0  0  0  0  0  0  0  0  0  0  0  0
  -12.7310   -2.7290    0.7330 N   0  0  0  0  0  0  0  0  0  0  0  0
  -12.9960   -1.9940   -0.4510 N   0  0  0  0  0  0  0  0  0  0  0  0
  -14.3580   -1.6940   -0.7530 C   0  0  0  0  0  0  0  0  0  0  0  0
  -15.0390   -0.7180   -0.0560 C   0  0  0  0  0  0  0  0  0  0  0  0
  -16.3510   -0.4690   -0.3980 C   0  0  0  0  0  0  0  0  0  0  0  0
  -16.9430   -1.2030   -1.4080 C   0  0  0  0  0  0  0  0  0  0  0  0
  -18.3840   -0.9560   -1.8060 C   0  0  0  0  0  0  0  0  0  0  0  0
  -16.2510   -2.1690   -2.1000 C   0  0  0  0  0  0  0  0  0  0  0  0
  -14.9490   -2.4160   -1.7590 C   0  0  0  0  0  0  0  0  0  0  0  0
  -11.9050   -1.5730   -1.3540 C   0  0  0  0  0  0  0  0  0  0  0  0
  -10.5280   -1.9050   -1.0240 N   0  0  0  0  0  0  0  0  0  0  0  0
   -9.4550   -1.4720   -1.9190 C   0  0  0  0  0  0  0  0  0  0  0  0
   -9.2820   -2.3940   -3.1270 C   0  0  0  0  0  0  0  0  0  0  0  0
   -7.8170   -2.5500   -3.5360 C   0  0  0  0  0  0  0  0  0  0  0  0
   -6.9720   -3.3210   -2.7550 C   0  0  0  0  0  0  0  0  0  0  0  0
   -5.6390   -3.4770   -3.1110 C   0  0  0  0  0  0  0  0  0  0  0  0
   -5.1940   -2.8390   -4.2640 C   0  0  0  0  0  0  0  0  0  0  0  0
   -6.0850   -2.0780   -5.0070 C   0  0  0  0  0  0  0  0  0  0  0  0
   -7.3470   -1.9600   -4.6270 N   0  0  0  0  0  0  0  0  0  0  0  0
  -12.1450   -0.9640   -2.3390 O   0  0  0  0  0  0  0  0  0  0  0  0
  -18.7610   -1.8760   -2.7390 F   0  0  0  0  0  0  0  0  0  0  0  0
  -18.4550    0.3250   -2.2750 F   0  0  0  0  0  0  0  0  0  0  0  0
  -19.1950   -1.1300   -0.7370 F   0  0  0  0  0  0  0  0  0  0  0  0
  -10.0453   -2.0069   -4.3181 C   0  0  0  0  0  0  0  0  0  0  0  0
   -9.8476   -3.8948   -2.8015 C   0  0  0  0  0  0  0  0  0  0  0  0
  -10.1714   -4.7331   -3.9309 C   0  0  0  0  0  0  0  0  0  0  0  0
  -10.1706   -6.0308   -3.5979 O   0  0  0  0  0  0  0  0  0  0  0  0
   -9.4459   -6.4041   -2.5012 C   0  0  0  0  0  0  0  0  0  0  0  0
   -8.2858   -7.0742   -2.3226 C   0  0  0  0  0  0  0  0  0  0  0  0
   -7.6142   -7.1440   -1.2712 N   0  0  0  0  0  0  0  0  0  0  0  0
  1  2  2  0
  2  3  1  0
  2 16  1  0
  3  4  1  0
  3  6  2  0
  4  5  1  0
  6  7  1  0
  7 15  1  0
  7  8  1  0
 11 12  1  0
 12 28  1  0
 12 27  1  0
 12 26  1  0
 15 16  1  0
 15 25  2  0
 16 17  1  0
 17 18  1  0
 18 19  1  0
 18 29  1  0
 18 30  1  0
 30 31  2  3
 31 32  1  0
 32 33  1  0
 33 34  2  3
 34 35  1  0
  8  9  2  0
  9 10  1  0
 10 11  2  0
 11 13  1  0
 13 14  2  0
 14  8  1  0
 19 20  2  0
 20 21  1  0
 21 22  2  0
 22 23  1  0
 23 24  2  0
 24 19  1  0
M  END

$$$$
No_173-gen_results_new/Mpro_new_generate_500/2024-01-19-21-58-56/
     RDKit          3D

 34 37  0  0  0  0  0  0  0  0999 V2000
   -9.1300   -2.9100    0.4520 O   0  0  0  0  0  0  0  0  0  0  0  0
  -10.2490   -2.6420    0.1800 C   0  0  0  0  0  0  0  0  0  0  0  0
  -11.3800   -3.0650    1.0860 C   0  0  0  0  0  0  0  0  0  0  0  0
  -11.2000   -3.8390    2.3880 C   0  0  0  0  0  0  0  0  0  0  0  0
  -10.9900   -5.0690    2.3420 N   0  0  0  0  0  0  0  0  0  0  0  0
  -12.7310   -2.7290    0.7330 N   0  0  0  0  0  0  0  0  0  0  0  0
  -12.9960   -1.9940   -0.4510 N   0  0  0  0  0  0  0  0  0  0  0  0
  -14.3580   -1.6940   -0.7530 C   0  0  0  0  0  0  0  0  0  0  0  0
  -15.0390   -0.7180   -0.0560 C   0  0  0  0  0  0  0  0  0  0  0  0
  -16.3510   -0.4690   -0.3980 C   0  0  0  0  0  0  0  0  0  0  0  0
  -16.9430   -1.2030   -1.4080 C   0  0  0  0  0  0  0  0  0  0  0  0
  -18.3840   -0.9560   -1.8060 C   0  0  0  0  0  0  0  0  0  0  0  0
  -16.2510   -2.1690   -2.1000 C   0  0  0  0  0  0  0  0  0  0  0  0
  -14.9490   -2.4160   -1.7590 C   0  0  0  0  0  0  0  0  0  0  0  0
  -11.9050   -1.5730   -1.3540 C   0  0  0  0  0  0  0  0  0  0  0  0
  -10.5280   -1.9050   -1.0240 N   0  0  0  0  0  0  0  0  0  0  0  0
   -9.4550   -1.4720   -1.9190 C   0  0  0  0  0  0  0  0  0  0  0  0
   -9.2820   -2.3940   -3.1270 C   0  0  0  0  0  0  0  0  0  0  0  0
   -7.8170   -2.5500   -3.5360 C   0  0  0  0  0  0  0  0  0  0  0  0
   -6.9720   -3.3210   -2.7550 C   0  0  0  0  0  0  0  0  0  0  0  0
   -5.6390   -3.4770   -3.1110 C   0  0  0  0  0  0  0  0  0  0  0  0
   -5.1940   -2.8390   -4.2640 C   0  0  0  0  0  0  0  0  0  0  0  0
   -6.0850   -2.0780   -5.0070 C   0  0  0  0  0  0  0  0  0  0  0  0
   -7.3470   -1.9600   -4.6270 N   0  0  0  0  0  0  0  0  0  0  0  0
  -12.1450   -0.9640   -2.3390 O   0  0  0  0  0  0  0  0  0  0  0  0
  -18.7610   -1.8760   -2.7390 F   0  0  0  0  0  0  0  0  0  0  0  0
  -18.4550    0.3250   -2.2750 F   0  0  0  0  0  0  0  0  0  0  0  0
  -19.1950   -1.1300   -0.7370 F   0  0  0  0  0  0  0  0  0  0  0  0
  -10.1467   -3.0903   -3.8357 C   0  0  0  0  0  0  0  0  0  0  0  0
  -10.1176   -2.2481   -3.6828 S   0  0  0  0  0  0  0  0  0  0  0  0
   -9.7170   -1.4773   -5.1221 O   0  0  0  0  0  0  0  0  0  0  0  0
  -11.1853   -3.2874   -4.1707 C   0  0  0  0  0  0  0  0  0  0  0  0
   -9.9324   -4.1176   -4.6048 C   0  0  0  0  0  0  0  0  0  0  0  0
  -11.5744   -1.4492   -3.5058 O   0  0  0  0  0  0  0  0  0  0  0  0
  1  2  2  0
  2  3  1  0
  2 16  1  0
  3  4  1  0
  3  6  2  0
  4  5  1  0
  6  7  1  0
  7 15  1  0
  7  8  1  0
 11 12  1  0
 12 28  1  0
 12 27  1  0
 12 26  1  0
 15 16  1  0
 15 25  2  0
 16 17  1  0
 17 18  1  0
 18 19  1  0
 18 29  1  0
 18 30  1  0
 30 31  2  0
 29 32  2  0
 30 32  1  0
 29 33  1  0
 30 34  2  0
  8  9  2  0
  9 10  1  0
 10 11  2  0
 11 13  1  0
 13 14  2  0
 14  8  1  0
 19 20  2  0
 20 21  1  0
 21 22  2  0
 22 23  1  0
 23 24  2  0
 24 19  1  0
M  END

$$$$
No_174-gen_results_new/Mpro_new_generate_500/2024-01-19-21-58-56/
     RDKit          3D

 33 35  0  0  0  0  0  0  0  0999 V2000
   -9.1300   -2.9100    0.4520 O   0  0  0  0  0  0  0  0  0  0  0  0
  -10.2490   -2.6420    0.1800 C   0  0  0  0  0  0  0  0  0  0  0  0
  -11.3800   -3.0650    1.0860 C   0  0  0  0  0  0  0  0  0  0  0  0
  -11.2000   -3.8390    2.3880 C   0  0  0  0  0  0  0  0  0  0  0  0
  -10.9900   -5.0690    2.3420 N   0  0  0  0  0  0  0  0  0  0  0  0
  -12.7310   -2.7290    0.7330 N   0  0  0  0  0  0  0  0  0  0  0  0
  -12.9960   -1.9940   -0.4510 N   0  0  0  0  0  0  0  0  0  0  0  0
  -14.3580   -1.6940   -0.7530 C   0  0  0  0  0  0  0  0  0  0  0  0
  -15.0390   -0.7180   -0.0560 C   0  0  0  0  0  0  0  0  0  0  0  0
  -16.3510   -0.4690   -0.3980 C   0  0  0  0  0  0  0  0  0  0  0  0
  -16.9430   -1.2030   -1.4080 C   0  0  0  0  0  0  0  0  0  0  0  0
  -18.3840   -0.9560   -1.8060 C   0  0  0  0  0  0  0  0  0  0  0  0
  -16.2510   -2.1690   -2.1000 C   0  0  0  0  0  0  0  0  0  0  0  0
  -14.9490   -2.4160   -1.7590 C   0  0  0  0  0  0  0  0  0  0  0  0
  -11.9050   -1.5730   -1.3540 C   0  0  0  0  0  0  0  0  0  0  0  0
  -10.5280   -1.9050   -1.0240 N   0  0  0  0  0  0  0  0  0  0  0  0
   -9.4550   -1.4720   -1.9190 C   0  0  0  0  0  0  0  0  0  0  0  0
   -9.2820   -2.3940   -3.1270 C   0  0  0  0  0  0  0  0  0  0  0  0
   -7.8170   -2.5500   -3.5360 C   0  0  0  0  0  0  0  0  0  0  0  0
   -6.9720   -3.3210   -2.7550 C   0  0  0  0  0  0  0  0  0  0  0  0
   -5.6390   -3.4770   -3.1110 C   0  0  0  0  0  0  0  0  0  0  0  0
   -5.1940   -2.8390   -4.2640 C   0  0  0  0  0  0  0  0  0  0  0  0
   -6.0850   -2.0780   -5.0070 C   0  0  0  0  0  0  0  0  0  0  0  0
   -7.3470   -1.9600   -4.6270 N   0  0  0  0  0  0  0  0  0  0  0  0
  -12.1450   -0.9640   -2.3390 O   0  0  0  0  0  0  0  0  0  0  0  0
  -18.7610   -1.8760   -2.7390 F   0  0  0  0  0  0  0  0  0  0  0  0
  -18.4550    0.3250   -2.2750 F   0  0  0  0  0  0  0  0  0  0  0  0
  -19.1950   -1.1300   -0.7370 F   0  0  0  0  0  0  0  0  0  0  0  0
  -10.0899   -3.0088   -3.7244 O   0  0  0  0  0  0  0  0  0  0  0  0
  -16.7753   -3.1566   -3.2091 C   0  0  0  0  0  0  0  0  0  0  0  0
  -16.6714   -4.4054   -2.9916 F   0  0  0  0  0  0  0  0  0  0  0  0
  -16.5822   -2.7055   -4.3556 F   0  0  0  0  0  0  0  0  0  0  0  0
  -17.6921   -2.7943   -3.8621 F   0  0  0  0  0  0  0  0  0  0  0  0
  1  2  2  0
  2  3  1  0
  2 16  1  0
  3  4  1  0
  3  6  2  0
  4  5  1  0
  6  7  1  0
  7 15  1  0
  7  8  1  0
 11 12  1  0
 12 28  1  0
 12 27  1  0
 12 26  1  0
 15 16  1  0
 15 25  2  0
 16 17  1  0
 17 18  1  0
 18 19  1  0
 18 29  2  0
 13 30  1  0
 30 31  1  0
 30 32  1  0
 30 33  1  0
  8  9  2  0
  9 10  1  0
 10 11  2  0
 11 13  1  0
 13 14  2  0
 14  8  1  0
 19 20  2  0
 20 21  1  0
 21 22  2  0
 22 23  1  0
 23 24  2  0
 24 19  1  0
M  END

$$$$
No_175-gen_results_new/Mpro_new_generate_500/2024-01-19-21-58-56/
     RDKit          3D

 33 35  0  0  0  0  0  0  0  0999 V2000
   -9.1300   -2.9100    0.4520 O   0  0  0  0  0  0  0  0  0  0  0  0
  -10.2490   -2.6420    0.1800 C   0  0  0  0  0  0  0  0  0  0  0  0
  -11.3800   -3.0650    1.0860 C   0  0  0  0  0  0  0  0  0  0  0  0
  -11.2000   -3.8390    2.3880 C   0  0  0  0  0  0  0  0  0  0  0  0
  -10.9900   -5.0690    2.3420 N   0  0  0  0  0  0  0  0  0  0  0  0
  -12.7310   -2.7290    0.7330 N   0  0  0  0  0  0  0  0  0  0  0  0
  -12.9960   -1.9940   -0.4510 N   0  0  0  0  0  0  0  0  0  0  0  0
  -14.3580   -1.6940   -0.7530 C   0  0  0  0  0  0  0  0  0  0  0  0
  -15.0390   -0.7180   -0.0560 C   0  0  0  0  0  0  0  0  0  0  0  0
  -16.3510   -0.4690   -0.3980 C   0  0  0  0  0  0  0  0  0  0  0  0
  -16.9430   -1.2030   -1.4080 C   0  0  0  0  0  0  0  0  0  0  0  0
  -18.3840   -0.9560   -1.8060 C   0  0  0  0  0  0  0  0  0  0  0  0
  -16.2510   -2.1690   -2.1000 C   0  0  0  0  0  0  0  0  0  0  0  0
  -14.9490   -2.4160   -1.7590 C   0  0  0  0  0  0  0  0  0  0  0  0
  -11.9050   -1.5730   -1.3540 C   0  0  0  0  0  0  0  0  0  0  0  0
  -10.5280   -1.9050   -1.0240 N   0  0  0  0  0  0  0  0  0  0  0  0
   -9.4550   -1.4720   -1.9190 C   0  0  0  0  0  0  0  0  0  0  0  0
   -9.2820   -2.3940   -3.1270 C   0  0  0  0  0  0  0  0  0  0  0  0
   -7.8170   -2.5500   -3.5360 C   0  0  0  0  0  0  0  0  0  0  0  0
   -6.9720   -3.3210   -2.7550 C   0  0  0  0  0  0  0  0  0  0  0  0
   -5.6390   -3.4770   -3.1110 C   0  0  0  0  0  0  0  0  0  0  0  0
   -5.1940   -2.8390   -4.2640 C   0  0  0  0  0  0  0  0  0  0  0  0
   -6.0850   -2.0780   -5.0070 C   0  0  0  0  0  0  0  0  0  0  0  0
   -7.3470   -1.9600   -4.6270 N   0  0  0  0  0  0  0  0  0  0  0  0
  -12.1450   -0.9640   -2.3390 O   0  0  0  0  0  0  0  0  0  0  0  0
  -18.7610   -1.8760   -2.7390 F   0  0  0  0  0  0  0  0  0  0  0  0
  -18.4550    0.3250   -2.2750 F   0  0  0  0  0  0  0  0  0  0  0  0
  -19.1950   -1.1300   -0.7370 F   0  0  0  0  0  0  0  0  0  0  0  0
  -10.1467   -3.0903   -3.8357 C   0  0  0  0  0  0  0  0  0  0  0  0
  -10.1681   -2.5855   -3.6007 C   0  0  0  0  0  0  0  0  0  0  0  0
  -10.4499   -1.5957   -4.9129 C   0  0  0  0  0  0  0  0  0  0  0  0
  -11.5357   -2.7536   -3.0630 O   0  0  0  0  0  0  0  0  0  0  0  0
  -11.5682   -4.0789   -2.4216 C   0  0  0  0  0  0  0  0  0  0  0  0
  1  2  2  0
  2  3  1  0
  2 16  1  0
  3  4  1  0
  3  6  2  0
  4  5  1  0
  6  7  1  0
  7 15  1  0
  7  8  1  0
 11 12  1  0
 12 28  1  0
 12 27  1  0
 12 26  1  0
 15 16  1  0
 15 25  2  0
 16 17  1  0
 17 18  1  0
 18 19  1  0
 18 29  1  0
 29 30  1  0
 30 31  1  0
 30 32  1  0
 32 33  1  0
  8  9  2  0
  9 10  1  0
 10 11  2  0
 11 13  1  0
 13 14  2  0
 14  8  1  0
 19 20  2  0
 20 21  1  0
 21 22  2  0
 22 23  1  0
 23 24  2  0
 24 19  1  0
M  END

$$$$
No_176-gen_results_new/Mpro_new_generate_500/2024-01-19-21-58-56/
     RDKit          3D

 35 38  0  0  0  0  0  0  0  0999 V2000
   -9.1300   -2.9100    0.4520 O   0  0  0  0  0  0  0  0  0  0  0  0
  -10.2490   -2.6420    0.1800 C   0  0  0  0  0  0  0  0  0  0  0  0
  -11.3800   -3.0650    1.0860 C   0  0  0  0  0  0  0  0  0  0  0  0
  -11.2000   -3.8390    2.3880 C   0  0  0  0  0  0  0  0  0  0  0  0
  -10.9900   -5.0690    2.3420 N   0  0  0  0  0  0  0  0  0  0  0  0
  -12.7310   -2.7290    0.7330 N   0  0  0  0  0  0  0  0  0  0  0  0
  -12.9960   -1.9940   -0.4510 N   0  0  0  0  0  0  0  0  0  0  0  0
  -14.3580   -1.6940   -0.7530 C   0  0  0  0  0  0  0  0  0  0  0  0
  -15.0390   -0.7180   -0.0560 C   0  0  0  0  0  0  0  0  0  0  0  0
  -16.3510   -0.4690   -0.3980 C   0  0  0  0  0  0  0  0  0  0  0  0
  -16.9430   -1.2030   -1.4080 C   0  0  0  0  0  0  0  0  0  0  0  0
  -18.3840   -0.9560   -1.8060 C   0  0  0  0  0  0  0  0  0  0  0  0
  -16.2510   -2.1690   -2.1000 C   0  0  0  0  0  0  0  0  0  0  0  0
  -14.9490   -2.4160   -1.7590 C   0  0  0  0  0  0  0  0  0  0  0  0
  -11.9050   -1.5730   -1.3540 C   0  0  0  0  0  0  0  0  0  0  0  0
  -10.5280   -1.9050   -1.0240 N   0  0  0  0  0  0  0  0  0  0  0  0
   -9.4550   -1.4720   -1.9190 C   0  0  0  0  0  0  0  0  0  0  0  0
   -9.2820   -2.3940   -3.1270 C   0  0  0  0  0  0  0  0  0  0  0  0
   -7.8170   -2.5500   -3.5360 C   0  0  0  0  0  0  0  0  0  0  0  0
   -6.9720   -3.3210   -2.7550 C   0  0  0  0  0  0  0  0  0  0  0  0
   -5.6390   -3.4770   -3.1110 C   0  0  0  0  0  0  0  0  0  0  0  0
   -5.1940   -2.8390   -4.2640 C   0  0  0  0  0  0  0  0  0  0  0  0
   -6.0850   -2.0780   -5.0070 C   0  0  0  0  0  0  0  0  0  0  0  0
   -7.3470   -1.9600   -4.6270 N   0  0  0  0  0  0  0  0  0  0  0  0
  -12.1450   -0.9640   -2.3390 O   0  0  0  0  0  0  0  0  0  0  0  0
  -18.7610   -1.8760   -2.7390 F   0  0  0  0  0  0  0  0  0  0  0  0
  -18.4550    0.3250   -2.2750 F   0  0  0  0  0  0  0  0  0  0  0  0
  -19.1950   -1.1300   -0.7370 F   0  0  0  0  0  0  0  0  0  0  0  0
   -9.7920   -3.7475   -2.8656 C   0  0  0  0  0  0  0  0  0  0  0  0
  -10.0717   -1.8029   -4.3549 C   0  0  0  0  0  0  0  0  0  0  0  0
  -10.8758   -3.7619   -2.5647 F   0  0  0  0  0  0  0  0  0  0  0  0
   -9.7385   -4.6055   -4.0492 F   0  0  0  0  0  0  0  0  0  0  0  0
   -9.0128   -4.4827   -1.6996 C   0  0  0  0  0  0  0  0  0  0  0  0
   -9.3302   -5.7085   -1.1677 C   0  0  0  0  0  0  0  0  0  0  0  0
   -7.5556   -4.6270   -1.4812 C   0  0  0  0  0  0  0  0  0  0  0  0
  1  2  2  0
  2  3  1  0
  2 16  1  0
  3  4  1  0
  3  6  2  0
  4  5  1  0
  6  7  1  0
  7 15  1  0
  7  8  1  0
 11 12  1  0
 12 28  1  0
 12 27  1  0
 12 26  1  0
 15 16  1  0
 15 25  2  0
 16 17  1  0
 17 18  1  0
 18 19  1  0
 18 29  1  0
 18 30  1  0
 29 31  1  0
 29 32  1  0
 29 33  1  0
 20 35  1  0
 33 35  1  0
 34 33  1  0
  8  9  2  0
  9 10  1  0
 10 11  2  0
 11 13  1  0
 13 14  2  0
 14  8  1  0
 19 24  1  0
 24 23  2  0
 23 22  1  0
 22 21  2  0
 21 20  1  0
 20 19  2  0
M  END

$$$$
No_177-gen_results_new/Mpro_new_generate_500/2024-01-19-21-58-56/
     RDKit          3D

 32 34  0  0  0  0  0  0  0  0999 V2000
   -9.1300   -2.9100    0.4520 O   0  0  0  0  0  0  0  0  0  0  0  0
  -10.2490   -2.6420    0.1800 C   0  0  0  0  0  0  0  0  0  0  0  0
  -11.3800   -3.0650    1.0860 C   0  0  0  0  0  0  0  0  0  0  0  0
  -11.2000   -3.8390    2.3880 C   0  0  0  0  0  0  0  0  0  0  0  0
  -10.9900   -5.0690    2.3420 N   0  0  0  0  0  0  0  0  0  0  0  0
  -12.7310   -2.7290    0.7330 N   0  0  0  0  0  0  0  0  0  0  0  0
  -12.9960   -1.9940   -0.4510 N   0  0  0  0  0  0  0  0  0  0  0  0
  -14.3580   -1.6940   -0.7530 C   0  0  0  0  0  0  0  0  0  0  0  0
  -15.0390   -0.7180   -0.0560 C   0  0  0  0  0  0  0  0  0  0  0  0
  -16.3510   -0.4690   -0.3980 C   0  0  0  0  0  0  0  0  0  0  0  0
  -16.9430   -1.2030   -1.4080 C   0  0  0  0  0  0  0  0  0  0  0  0
  -18.3840   -0.9560   -1.8060 C   0  0  0  0  0  0  0  0  0  0  0  0
  -16.2510   -2.1690   -2.1000 C   0  0  0  0  0  0  0  0  0  0  0  0
  -14.9490   -2.4160   -1.7590 C   0  0  0  0  0  0  0  0  0  0  0  0
  -11.9050   -1.5730   -1.3540 C   0  0  0  0  0  0  0  0  0  0  0  0
  -10.5280   -1.9050   -1.0240 N   0  0  0  0  0  0  0  0  0  0  0  0
   -9.4550   -1.4720   -1.9190 C   0  0  0  0  0  0  0  0  0  0  0  0
   -9.2820   -2.3940   -3.1270 C   0  0  0  0  0  0  0  0  0  0  0  0
   -7.8170   -2.5500   -3.5360 C   0  0  0  0  0  0  0  0  0  0  0  0
   -6.9720   -3.3210   -2.7550 C   0  0  0  0  0  0  0  0  0  0  0  0
   -5.6390   -3.4770   -3.1110 C   0  0  0  0  0  0  0  0  0  0  0  0
   -5.1940   -2.8390   -4.2640 C   0  0  0  0  0  0  0  0  0  0  0  0
   -6.0850   -2.0780   -5.0070 C   0  0  0  0  0  0  0  0  0  0  0  0
   -7.3470   -1.9600   -4.6270 N   0  0  0  0  0  0  0  0  0  0  0  0
  -12.1450   -0.9640   -2.3390 O   0  0  0  0  0  0  0  0  0  0  0  0
  -18.7610   -1.8760   -2.7390 F   0  0  0  0  0  0  0  0  0  0  0  0
  -18.4550    0.3250   -2.2750 F   0  0  0  0  0  0  0  0  0  0  0  0
  -19.1950   -1.1300   -0.7370 F   0  0  0  0  0  0  0  0  0  0  0  0
   -9.7920   -3.7475   -2.8656 C   0  0  0  0  0  0  0  0  0  0  0  0
  -10.0717   -1.8029   -4.3549 C   0  0  0  0  0  0  0  0  0  0  0  0
   -9.3646   -4.4618   -1.7954 F   0  0  0  0  0  0  0  0  0  0  0  0
  -10.5037   -4.3699   -3.6094 F   0  0  0  0  0  0  0  0  0  0  0  0
  1  2  2  0
  2  3  1  0
  2 16  1  0
  3  4  1  0
  3  6  2  0
  4  5  1  0
  6  7  1  0
  7 15  1  0
  7  8  1  0
 11 12  1  0
 12 28  1  0
 12 27  1  0
 12 26  1  0
 15 16  1  0
 15 25  2  0
 16 17  1  0
 17 18  1  0
 18 19  1  0
 18 29  1  0
 18 30  1  0
 29 31  1  0
 29 32  1  0
  8  9  2  0
  9 10  1  0
 10 11  2  0
 11 13  1  0
 13 14  2  0
 14  8  1  0
 19 20  2  0
 20 21  1  0
 21 22  2  0
 22 23  1  0
 23 24  2  0
 24 19  1  0
M  END

$$$$
No_178-gen_results_new/Mpro_new_generate_500/2024-01-19-21-58-56/
     RDKit          3D

 35 38  0  0  0  0  0  0  0  0999 V2000
   -9.1300   -2.9100    0.4520 O   0  0  0  0  0  0  0  0  0  0  0  0
  -10.2490   -2.6420    0.1800 C   0  0  0  0  0  0  0  0  0  0  0  0
  -11.3800   -3.0650    1.0860 C   0  0  0  0  0  0  0  0  0  0  0  0
  -11.2000   -3.8390    2.3880 C   0  0  0  0  0  0  0  0  0  0  0  0
  -10.9900   -5.0690    2.3420 N   0  0  0  0  0  0  0  0  0  0  0  0
  -12.7310   -2.7290    0.7330 N   0  0  0  0  0  0  0  0  0  0  0  0
  -12.9960   -1.9940   -0.4510 N   0  0  0  0  0  0  0  0  0  0  0  0
  -14.3580   -1.6940   -0.7530 C   0  0  0  0  0  0  0  0  0  0  0  0
  -15.0390   -0.7180   -0.0560 C   0  0  0  0  0  0  0  0  0  0  0  0
  -16.3510   -0.4690   -0.3980 C   0  0  0  0  0  0  0  0  0  0  0  0
  -16.9430   -1.2030   -1.4080 C   0  0  0  0  0  0  0  0  0  0  0  0
  -18.3840   -0.9560   -1.8060 C   0  0  0  0  0  0  0  0  0  0  0  0
  -16.2510   -2.1690   -2.1000 C   0  0  0  0  0  0  0  0  0  0  0  0
  -14.9490   -2.4160   -1.7590 C   0  0  0  0  0  0  0  0  0  0  0  0
  -11.9050   -1.5730   -1.3540 C   0  0  0  0  0  0  0  0  0  0  0  0
  -10.5280   -1.9050   -1.0240 N   0  0  0  0  0  0  0  0  0  0  0  0
   -9.4550   -1.4720   -1.9190 C   0  0  0  0  0  0  0  0  0  0  0  0
   -9.2820   -2.3940   -3.1270 C   0  0  0  0  0  0  0  0  0  0  0  0
   -7.8170   -2.5500   -3.5360 C   0  0  0  0  0  0  0  0  0  0  0  0
   -6.9720   -3.3210   -2.7550 C   0  0  0  0  0  0  0  0  0  0  0  0
   -5.6390   -3.4770   -3.1110 C   0  0  0  0  0  0  0  0  0  0  0  0
   -5.1940   -2.8390   -4.2640 C   0  0  0  0  0  0  0  0  0  0  0  0
   -6.0850   -2.0780   -5.0070 C   0  0  0  0  0  0  0  0  0  0  0  0
   -7.3470   -1.9600   -4.6270 N   0  0  0  0  0  0  0  0  0  0  0  0
  -12.1450   -0.9640   -2.3390 O   0  0  0  0  0  0  0  0  0  0  0  0
  -18.7610   -1.8760   -2.7390 F   0  0  0  0  0  0  0  0  0  0  0  0
  -18.4550    0.3250   -2.2750 F   0  0  0  0  0  0  0  0  0  0  0  0
  -19.1950   -1.1300   -0.7370 F   0  0  0  0  0  0  0  0  0  0  0  0
   -9.7920   -3.7475   -2.8656 C   0  0  0  0  0  0  0  0  0  0  0  0
  -10.1387   -2.0206   -4.2903 C   0  0  0  0  0  0  0  0  0  0  0  0
  -10.1257   -4.6809   -3.9732 C   0  0  0  0  0  0  0  0  0  0  0  0
  -10.4401   -5.9927   -3.6647 F   0  0  0  0  0  0  0  0  0  0  0  0
  -10.5434   -4.3046   -5.2304 C   0  0  0  0  0  0  0  0  0  0  0  0
  -10.7770   -2.7845   -5.2450 C   0  0  0  0  0  0  0  0  0  0  0  0
  -10.0401   -0.6520   -4.7326 F   0  0  0  0  0  0  0  0  0  0  0  0
  1  2  2  0
  2  3  1  0
  2 16  1  0
  3  4  1  0
  3  6  2  0
  4  5  1  0
  6  7  1  0
  7 15  1  0
  7  8  1  0
 11 12  1  0
 12 28  1  0
 12 27  1  0
 12 26  1  0
 15 16  1  0
 15 25  2  0
 16 17  1  0
 17 18  1  0
 18 19  1  0
 18 29  1  0
 18 30  1  0
 31 32  1  0
 31 33  1  0
 30 34  1  0
 30 35  1  0
 29 31  1  0
 33 34  1  0
  8  9  2  0
  9 10  1  0
 10 11  2  0
 11 13  1  0
 13 14  2  0
 14  8  1  0
 19 20  2  0
 20 21  1  0
 21 22  2  0
 22 23  1  0
 23 24  2  0
 24 19  1  0
M  END

$$$$
No_179-gen_results_new/Mpro_new_generate_500/2024-01-19-21-58-56/
     RDKit          3D

 33 35  0  0  0  0  0  0  0  0999 V2000
   -9.1300   -2.9100    0.4520 O   0  0  0  0  0  0  0  0  0  0  0  0
  -10.2490   -2.6420    0.1800 C   0  0  0  0  0  0  0  0  0  0  0  0
  -11.3800   -3.0650    1.0860 C   0  0  0  0  0  0  0  0  0  0  0  0
  -11.2000   -3.8390    2.3880 C   0  0  0  0  0  0  0  0  0  0  0  0
  -10.9900   -5.0690    2.3420 N   0  0  0  0  0  0  0  0  0  0  0  0
  -12.7310   -2.7290    0.7330 N   0  0  0  0  0  0  0  0  0  0  0  0
  -12.9960   -1.9940   -0.4510 N   0  0  0  0  0  0  0  0  0  0  0  0
  -14.3580   -1.6940   -0.7530 C   0  0  0  0  0  0  0  0  0  0  0  0
  -15.0390   -0.7180   -0.0560 C   0  0  0  0  0  0  0  0  0  0  0  0
  -16.3510   -0.4690   -0.3980 C   0  0  0  0  0  0  0  0  0  0  0  0
  -16.9430   -1.2030   -1.4080 C   0  0  0  0  0  0  0  0  0  0  0  0
  -18.3840   -0.9560   -1.8060 C   0  0  0  0  0  0  0  0  0  0  0  0
  -16.2510   -2.1690   -2.1000 C   0  0  0  0  0  0  0  0  0  0  0  0
  -14.9490   -2.4160   -1.7590 C   0  0  0  0  0  0  0  0  0  0  0  0
  -11.9050   -1.5730   -1.3540 C   0  0  0  0  0  0  0  0  0  0  0  0
  -10.5280   -1.9050   -1.0240 N   0  0  0  0  0  0  0  0  0  0  0  0
   -9.4550   -1.4720   -1.9190 C   0  0  0  0  0  0  0  0  0  0  0  0
   -9.2820   -2.3940   -3.1270 C   0  0  0  0  0  0  0  0  0  0  0  0
   -7.8170   -2.5500   -3.5360 C   0  0  0  0  0  0  0  0  0  0  0  0
   -6.9720   -3.3210   -2.7550 C   0  0  0  0  0  0  0  0  0  0  0  0
   -5.6390   -3.4770   -3.1110 C   0  0  0  0  0  0  0  0  0  0  0  0
   -5.1940   -2.8390   -4.2640 C   0  0  0  0  0  0  0  0  0  0  0  0
   -6.0850   -2.0780   -5.0070 C   0  0  0  0  0  0  0  0  0  0  0  0
   -7.3470   -1.9600   -4.6270 N   0  0  0  0  0  0  0  0  0  0  0  0
  -12.1450   -0.9640   -2.3390 O   0  0  0  0  0  0  0  0  0  0  0  0
  -18.7610   -1.8760   -2.7390 F   0  0  0  0  0  0  0  0  0  0  0  0
  -18.4550    0.3250   -2.2750 F   0  0  0  0  0  0  0  0  0  0  0  0
  -19.1950   -1.1300   -0.7370 F   0  0  0  0  0  0  0  0  0  0  0  0
   -9.7920   -3.7475   -2.8656 C   0  0  0  0  0  0  0  0  0  0  0  0
  -10.0717   -1.8029   -4.3549 C   0  0  0  0  0  0  0  0  0  0  0  0
   -9.2616   -4.7965   -1.8772 S   0  0  0  0  0  0  0  0  0  0  0  0
   -9.7169   -5.0236   -0.4635 C   0  0  0  0  0  0  0  0  0  0  0  0
   -9.3754   -6.2371   -2.6915 O   0  0  0  0  0  0  0  0  0  0  0  0
  1  2  2  0
  2  3  1  0
  2 16  1  0
  3  4  1  0
  3  6  2  0
  4  5  1  0
  6  7  1  0
  7 15  1  0
  7  8  1  0
 11 12  1  0
 12 28  1  0
 12 27  1  0
 12 26  1  0
 15 16  1  0
 15 25  2  0
 16 17  1  0
 17 18  1  0
 18 19  1  0
 18 29  1  0
 18 30  1  0
 29 31  1  0
 31 32  1  0
 31 33  2  0
  8  9  2  0
  9 10  1  0
 10 11  2  0
 11 13  1  0
 13 14  2  0
 14  8  1  0
 19 20  2  0
 20 21  1  0
 21 22  2  0
 22 23  1  0
 23 24  2  0
 24 19  1  0
M  END

$$$$
No_180-gen_results_new/Mpro_new_generate_500/2024-01-19-21-58-56/
     RDKit          3D

 34 36  0  0  0  0  0  0  0  0999 V2000
   -9.1300   -2.9100    0.4520 O   0  0  0  0  0  0  0  0  0  0  0  0
  -10.2490   -2.6420    0.1800 C   0  0  0  0  0  0  0  0  0  0  0  0
  -11.3800   -3.0650    1.0860 C   0  0  0  0  0  0  0  0  0  0  0  0
  -11.2000   -3.8390    2.3880 C   0  0  0  0  0  0  0  0  0  0  0  0
  -10.9900   -5.0690    2.3420 N   0  0  0  0  0  0  0  0  0  0  0  0
  -12.7310   -2.7290    0.7330 N   0  0  0  0  0  0  0  0  0  0  0  0
  -12.9960   -1.9940   -0.4510 N   0  0  0  0  0  0  0  0  0  0  0  0
  -14.3580   -1.6940   -0.7530 C   0  0  0  0  0  0  0  0  0  0  0  0
  -15.0390   -0.7180   -0.0560 C   0  0  0  0  0  0  0  0  0  0  0  0
  -16.3510   -0.4690   -0.3980 C   0  0  0  0  0  0  0  0  0  0  0  0
  -16.9430   -1.2030   -1.4080 C   0  0  0  0  0  0  0  0  0  0  0  0
  -18.3840   -0.9560   -1.8060 C   0  0  0  0  0  0  0  0  0  0  0  0
  -16.2510   -2.1690   -2.1000 C   0  0  0  0  0  0  0  0  0  0  0  0
  -14.9490   -2.4160   -1.7590 C   0  0  0  0  0  0  0  0  0  0  0  0
  -11.9050   -1.5730   -1.3540 C   0  0  0  0  0  0  0  0  0  0  0  0
  -10.5280   -1.9050   -1.0240 N   0  0  0  0  0  0  0  0  0  0  0  0
   -9.4550   -1.4720   -1.9190 C   0  0  0  0  0  0  0  0  0  0  0  0
   -9.2820   -2.3940   -3.1270 C   0  0  0  0  0  0  0  0  0  0  0  0
   -7.8170   -2.5500   -3.5360 C   0  0  0  0  0  0  0  0  0  0  0  0
   -6.9720   -3.3210   -2.7550 C   0  0  0  0  0  0  0  0  0  0  0  0
   -5.6390   -3.4770   -3.1110 C   0  0  0  0  0  0  0  0  0  0  0  0
   -5.1940   -2.8390   -4.2640 C   0  0  0  0  0  0  0  0  0  0  0  0
   -6.0850   -2.0780   -5.0070 C   0  0  0  0  0  0  0  0  0  0  0  0
   -7.3470   -1.9600   -4.6270 N   0  0  0  0  0  0  0  0  0  0  0  0
  -12.1450   -0.9640   -2.3390 O   0  0  0  0  0  0  0  0  0  0  0  0
  -18.7610   -1.8760   -2.7390 F   0  0  0  0  0  0  0  0  0  0  0  0
  -18.4550    0.3250   -2.2750 F   0  0  0  0  0  0  0  0  0  0  0  0
  -19.1950   -1.1300   -0.7370 F   0  0  0  0  0  0  0  0  0  0  0  0
  -10.0453   -2.0069   -4.3181 C   0  0  0  0  0  0  0  0  0  0  0  0
   -9.8476   -3.8948   -2.8015 C   0  0  0  0  0  0  0  0  0  0  0  0
   -9.1680   -4.8526   -2.1325 C   0  0  0  0  0  0  0  0  0  0  0  0
  -11.0936   -4.1834   -3.0146 O   0  0  0  0  0  0  0  0  0  0  0  0
   -9.1563   -6.0389   -2.6250 C   0  0  0  0  0  0  0  0  0  0  0  0
   -8.6413   -6.9309   -1.8500 F   0  0  0  0  0  0  0  0  0  0  0  0
  1  2  2  0
  2  3  1  0
  2 16  1  0
  3  4  1  0
  3  6  2  0
  4  5  1  0
  6  7  1  0
  7 15  1  0
  7  8  1  0
 11 12  1  0
 12 28  1  0
 12 27  1  0
 12 26  1  0
 15 16  1  0
 15 25  2  0
 16 17  1  0
 17 18  1  0
 18 19  1  0
 18 29  1  0
 18 30  1  0
 30 31  1  0
 30 32  2  0
 31 33  2  3
 33 34  1  0
  8  9  2  0
  9 10  1  0
 10 11  2  0
 11 13  1  0
 13 14  2  0
 14  8  1  0
 19 20  2  0
 20 21  1  0
 21 22  2  0
 22 23  1  0
 23 24  2  0
 24 19  1  0
M  END

$$$$
No_181-gen_results_new/Mpro_new_generate_500/2024-01-19-21-58-56/
     RDKit          3D

 35 38  0  0  0  0  0  0  0  0999 V2000
   -9.1300   -2.9100    0.4520 O   0  0  0  0  0  0  0  0  0  0  0  0
  -10.2490   -2.6420    0.1800 C   0  0  0  0  0  0  0  0  0  0  0  0
  -11.3800   -3.0650    1.0860 C   0  0  0  0  0  0  0  0  0  0  0  0
  -11.2000   -3.8390    2.3880 C   0  0  0  0  0  0  0  0  0  0  0  0
  -10.9900   -5.0690    2.3420 N   0  0  0  0  0  0  0  0  0  0  0  0
  -12.7310   -2.7290    0.7330 N   0  0  0  0  0  0  0  0  0  0  0  0
  -12.9960   -1.9940   -0.4510 N   0  0  0  0  0  0  0  0  0  0  0  0
  -14.3580   -1.6940   -0.7530 C   0  0  0  0  0  0  0  0  0  0  0  0
  -15.0390   -0.7180   -0.0560 C   0  0  0  0  0  0  0  0  0  0  0  0
  -16.3510   -0.4690   -0.3980 C   0  0  0  0  0  0  0  0  0  0  0  0
  -16.9430   -1.2030   -1.4080 C   0  0  0  0  0  0  0  0  0  0  0  0
  -18.3840   -0.9560   -1.8060 C   0  0  0  0  0  0  0  0  0  0  0  0
  -16.2510   -2.1690   -2.1000 C   0  0  0  0  0  0  0  0  0  0  0  0
  -14.9490   -2.4160   -1.7590 C   0  0  0  0  0  0  0  0  0  0  0  0
  -11.9050   -1.5730   -1.3540 C   0  0  0  0  0  0  0  0  0  0  0  0
  -10.5280   -1.9050   -1.0240 N   0  0  0  0  0  0  0  0  0  0  0  0
   -9.4550   -1.4720   -1.9190 C   0  0  0  0  0  0  0  0  0  0  0  0
   -9.2820   -2.3940   -3.1270 C   0  0  0  0  0  0  0  0  0  0  0  0
   -7.8170   -2.5500   -3.5360 C   0  0  0  0  0  0  0  0  0  0  0  0
   -6.9720   -3.3210   -2.7550 C   0  0  0  0  0  0  0  0  0  0  0  0
   -5.6390   -3.4770   -3.1110 C   0  0  0  0  0  0  0  0  0  0  0  0
   -5.1940   -2.8390   -4.2640 C   0  0  0  0  0  0  0  0  0  0  0  0
   -6.0850   -2.0780   -5.0070 C   0  0  0  0  0  0  0  0  0  0  0  0
   -7.3470   -1.9600   -4.6270 N   0  0  0  0  0  0  0  0  0  0  0  0
  -12.1450   -0.9640   -2.3390 O   0  0  0  0  0  0  0  0  0  0  0  0
  -18.7610   -1.8760   -2.7390 F   0  0  0  0  0  0  0  0  0  0  0  0
  -18.4550    0.3250   -2.2750 F   0  0  0  0  0  0  0  0  0  0  0  0
  -19.1950   -1.1300   -0.7370 F   0  0  0  0  0  0  0  0  0  0  0  0
   -9.7920   -3.7475   -2.8656 C   0  0  0  0  0  0  0  0  0  0  0  0
  -10.0717   -1.8029   -4.3549 C   0  0  0  0  0  0  0  0  0  0  0  0
  -10.0419   -4.6597   -4.1091 C   0  0  0  0  0  0  0  0  0  0  0  0
  -10.3271   -4.0944   -5.2068 O   0  0  0  0  0  0  0  0  0  0  0  0
  -10.6195   -2.6984   -5.2717 C   0  0  0  0  0  0  0  0  0  0  0  0
  -11.1258   -2.2457   -6.4306 O   0  0  0  0  0  0  0  0  0  0  0  0
   -9.8155   -6.0460   -4.0648 C   0  0  0  0  0  0  0  0  0  0  0  0
  1  2  2  0
  2  3  1  0
  2 16  1  0
  3  4  1  0
  3  6  2  0
  4  5  1  0
  6  7  1  0
  7 15  1  0
  7  8  1  0
 11 12  1  0
 12 28  1  0
 12 27  1  0
 12 26  1  0
 15 16  1  0
 15 25  2  0
 16 17  1  0
 17 18  1  0
 18 19  1  0
 18 29  1  0
 18 30  1  0
 29 31  2  0
 31 32  1  0
 30 33  1  0
 32 33  1  0
 33 34  2  0
 31 35  1  0
  8  9  2  0
  9 10  1  0
 10 11  2  0
 11 13  1  0
 13 14  2  0
 14  8  1  0
 19 20  2  0
 20 21  1  0
 21 22  2  0
 22 23  1  0
 23 24  2  0
 24 19  1  0
M  END

$$$$
No_182-gen_results_new/Mpro_new_generate_500/2024-01-19-21-58-56/
     RDKit          3D

 35 38  0  0  0  0  0  0  0  0999 V2000
   -9.1300   -2.9100    0.4520 O   0  0  0  0  0  0  0  0  0  0  0  0
  -10.2490   -2.6420    0.1800 C   0  0  0  0  0  0  0  0  0  0  0  0
  -11.3800   -3.0650    1.0860 C   0  0  0  0  0  0  0  0  0  0  0  0
  -11.2000   -3.8390    2.3880 C   0  0  0  0  0  0  0  0  0  0  0  0
  -10.9900   -5.0690    2.3420 N   0  0  0  0  0  0  0  0  0  0  0  0
  -12.7310   -2.7290    0.7330 N   0  0  0  0  0  0  0  0  0  0  0  0
  -12.9960   -1.9940   -0.4510 N   0  0  0  0  0  0  0  0  0  0  0  0
  -14.3580   -1.6940   -0.7530 C   0  0  0  0  0  0  0  0  0  0  0  0
  -15.0390   -0.7180   -0.0560 C   0  0  0  0  0  0  0  0  0  0  0  0
  -16.3510   -0.4690   -0.3980 C   0  0  0  0  0  0  0  0  0  0  0  0
  -16.9430   -1.2030   -1.4080 C   0  0  0  0  0  0  0  0  0  0  0  0
  -18.3840   -0.9560   -1.8060 C   0  0  0  0  0  0  0  0  0  0  0  0
  -16.2510   -2.1690   -2.1000 C   0  0  0  0  0  0  0  0  0  0  0  0
  -14.9490   -2.4160   -1.7590 C   0  0  0  0  0  0  0  0  0  0  0  0
  -11.9050   -1.5730   -1.3540 C   0  0  0  0  0  0  0  0  0  0  0  0
  -10.5280   -1.9050   -1.0240 N   0  0  0  0  0  0  0  0  0  0  0  0
   -9.4550   -1.4720   -1.9190 C   0  0  0  0  0  0  0  0  0  0  0  0
   -9.2820   -2.3940   -3.1270 C   0  0  0  0  0  0  0  0  0  0  0  0
   -7.8170   -2.5500   -3.5360 C   0  0  0  0  0  0  0  0  0  0  0  0
   -6.9720   -3.3210   -2.7550 C   0  0  0  0  0  0  0  0  0  0  0  0
   -5.6390   -3.4770   -3.1110 C   0  0  0  0  0  0  0  0  0  0  0  0
   -5.1940   -2.8390   -4.2640 C   0  0  0  0  0  0  0  0  0  0  0  0
   -6.0850   -2.0780   -5.0070 C   0  0  0  0  0  0  0  0  0  0  0  0
   -7.3470   -1.9600   -4.6270 N   0  0  0  0  0  0  0  0  0  0  0  0
  -12.1450   -0.9640   -2.3390 O   0  0  0  0  0  0  0  0  0  0  0  0
  -18.7610   -1.8760   -2.7390 F   0  0  0  0  0  0  0  0  0  0  0  0
  -18.4550    0.3250   -2.2750 F   0  0  0  0  0  0  0  0  0  0  0  0
  -19.1950   -1.1300   -0.7370 F   0  0  0  0  0  0  0  0  0  0  0  0
  -10.0453   -2.0069   -4.3181 C   0  0  0  0  0  0  0  0  0  0  0  0
   -9.7809   -3.8139   -2.5967 C   0  0  0  0  0  0  0  0  0  0  0  0
   -9.9864   -4.7821   -3.8205 C   0  0  0  0  0  0  0  0  0  0  0  0
   -9.1667   -5.1413   -4.3665 F   0  0  0  0  0  0  0  0  0  0  0  0
  -11.2225   -4.4831   -4.5585 C   0  0  0  0  0  0  0  0  0  0  0  0
  -10.8913   -3.2550   -5.1701 C   0  0  0  0  0  0  0  0  0  0  0  0
   -9.5425   -1.0274   -5.2969 C   0  0  0  0  0  0  0  0  0  0  0  0
  1  2  2  0
  2  3  1  0
  2 16  1  0
  3  4  1  0
  3  6  2  0
  4  5  1  0
  6  7  1  0
  7 15  1  0
  7  8  1  0
 11 12  1  0
 12 28  1  0
 12 27  1  0
 12 26  1  0
 15 16  1  0
 15 25  2  0
 16 17  1  0
 17 18  1  0
 18 19  1  0
 18 29  1  0
 18 30  1  0
 31 32  1  0
 31 33  1  0
 29 34  1  0
 33 34  1  0
 29 35  1  0
 31 30  1  0
  8  9  2  0
  9 10  1  0
 10 11  2  0
 11 13  1  0
 13 14  2  0
 14  8  1  0
 19 20  2  0
 20 21  1  0
 21 22  2  0
 22 23  1  0
 23 24  2  0
 24 19  1  0
M  END

$$$$
No_183-gen_results_new/Mpro_new_generate_500/2024-01-19-21-58-56/
     RDKit          3D

 34 37  0  0  0  0  0  0  0  0999 V2000
   -9.1300   -2.9100    0.4520 O   0  0  0  0  0  0  0  0  0  0  0  0
  -10.2490   -2.6420    0.1800 C   0  0  0  0  0  0  0  0  0  0  0  0
  -11.3800   -3.0650    1.0860 C   0  0  0  0  0  0  0  0  0  0  0  0
  -11.2000   -3.8390    2.3880 C   0  0  0  0  0  0  0  0  0  0  0  0
  -10.9900   -5.0690    2.3420 N   0  0  0  0  0  0  0  0  0  0  0  0
  -12.7310   -2.7290    0.7330 N   0  0  0  0  0  0  0  0  0  0  0  0
  -12.9960   -1.9940   -0.4510 N   0  0  0  0  0  0  0  0  0  0  0  0
  -14.3580   -1.6940   -0.7530 C   0  0  0  0  0  0  0  0  0  0  0  0
  -15.0390   -0.7180   -0.0560 C   0  0  0  0  0  0  0  0  0  0  0  0
  -16.3510   -0.4690   -0.3980 C   0  0  0  0  0  0  0  0  0  0  0  0
  -16.9430   -1.2030   -1.4080 C   0  0  0  0  0  0  0  0  0  0  0  0
  -18.3840   -0.9560   -1.8060 C   0  0  0  0  0  0  0  0  0  0  0  0
  -16.2510   -2.1690   -2.1000 C   0  0  0  0  0  0  0  0  0  0  0  0
  -14.9490   -2.4160   -1.7590 C   0  0  0  0  0  0  0  0  0  0  0  0
  -11.9050   -1.5730   -1.3540 C   0  0  0  0  0  0  0  0  0  0  0  0
  -10.5280   -1.9050   -1.0240 N   0  0  0  0  0  0  0  0  0  0  0  0
   -9.4550   -1.4720   -1.9190 C   0  0  0  0  0  0  0  0  0  0  0  0
   -9.2820   -2.3940   -3.1270 C   0  0  0  0  0  0  0  0  0  0  0  0
   -7.8170   -2.5500   -3.5360 C   0  0  0  0  0  0  0  0  0  0  0  0
   -6.9720   -3.3210   -2.7550 C   0  0  0  0  0  0  0  0  0  0  0  0
   -5.6390   -3.4770   -3.1110 C   0  0  0  0  0  0  0  0  0  0  0  0
   -5.1940   -2.8390   -4.2640 C   0  0  0  0  0  0  0  0  0  0  0  0
   -6.0850   -2.0780   -5.0070 C   0  0  0  0  0  0  0  0  0  0  0  0
   -7.3470   -1.9600   -4.6270 N   0  0  0  0  0  0  0  0  0  0  0  0
  -12.1450   -0.9640   -2.3390 O   0  0  0  0  0  0  0  0  0  0  0  0
  -18.7610   -1.8760   -2.7390 F   0  0  0  0  0  0  0  0  0  0  0  0
  -18.4550    0.3250   -2.2750 F   0  0  0  0  0  0  0  0  0  0  0  0
  -19.1950   -1.1300   -0.7370 F   0  0  0  0  0  0  0  0  0  0  0  0
  -10.0453   -2.0069   -4.3181 C   0  0  0  0  0  0  0  0  0  0  0  0
   -9.8476   -3.8948   -2.8015 C   0  0  0  0  0  0  0  0  0  0  0  0
  -10.1714   -4.7331   -3.9309 C   0  0  0  0  0  0  0  0  0  0  0  0
  -10.6874   -3.2977   -5.1696 S   0  0  0  0  0  0  0  0  0  0  0  0
  -10.0821   -3.5750   -6.4520 O   0  0  0  0  0  0  0  0  0  0  0  0
  -11.5369   -3.5598   -6.1480 O   0  0  0  0  0  0  0  0  0  0  0  0
  1  2  2  0
  2  3  1  0
  2 16  1  0
  3  4  1  0
  3  6  2  0
  4  5  1  0
  6  7  1  0
  7 15  1  0
  7  8  1  0
 11 12  1  0
 12 28  1  0
 12 27  1  0
 12 26  1  0
 15 16  1  0
 15 25  2  0
 16 17  1  0
 17 18  1  0
 18 19  1  0
 18 29  1  0
 18 30  1  0
 30 31  2  0
 29 32  1  0
 31 32  1  0
 32 33  2  0
 32 34  2  0
  8  9  2  0
  9 10  1  0
 10 11  2  0
 11 13  1  0
 13 14  2  0
 14  8  1  0
 19 20  2  0
 20 21  1  0
 21 22  2  0
 22 23  1  0
 23 24  2  0
 24 19  1  0
M  END

$$$$
No_184-gen_results_new/Mpro_new_generate_500/2024-01-19-21-58-56/
     RDKit          3D

 32 34  0  0  0  0  0  0  0  0999 V2000
   -9.1300   -2.9100    0.4520 O   0  0  0  0  0  0  0  0  0  0  0  0
  -10.2490   -2.6420    0.1800 C   0  0  0  0  0  0  0  0  0  0  0  0
  -11.3800   -3.0650    1.0860 C   0  0  0  0  0  0  0  0  0  0  0  0
  -11.2000   -3.8390    2.3880 C   0  0  0  0  0  0  0  0  0  0  0  0
  -10.9900   -5.0690    2.3420 N   0  0  0  0  0  0  0  0  0  0  0  0
  -12.7310   -2.7290    0.7330 N   0  0  0  0  0  0  0  0  0  0  0  0
  -12.9960   -1.9940   -0.4510 N   0  0  0  0  0  0  0  0  0  0  0  0
  -14.3580   -1.6940   -0.7530 C   0  0  0  0  0  0  0  0  0  0  0  0
  -15.0390   -0.7180   -0.0560 C   0  0  0  0  0  0  0  0  0  0  0  0
  -16.3510   -0.4690   -0.3980 C   0  0  0  0  0  0  0  0  0  0  0  0
  -16.9430   -1.2030   -1.4080 C   0  0  0  0  0  0  0  0  0  0  0  0
  -18.3840   -0.9560   -1.8060 C   0  0  0  0  0  0  0  0  0  0  0  0
  -16.2510   -2.1690   -2.1000 C   0  0  0  0  0  0  0  0  0  0  0  0
  -14.9490   -2.4160   -1.7590 C   0  0  0  0  0  0  0  0  0  0  0  0
  -11.9050   -1.5730   -1.3540 C   0  0  0  0  0  0  0  0  0  0  0  0
  -10.5280   -1.9050   -1.0240 N   0  0  0  0  0  0  0  0  0  0  0  0
   -9.4550   -1.4720   -1.9190 C   0  0  0  0  0  0  0  0  0  0  0  0
   -9.2820   -2.3940   -3.1270 C   0  0  0  0  0  0  0  0  0  0  0  0
   -7.8170   -2.5500   -3.5360 C   0  0  0  0  0  0  0  0  0  0  0  0
   -6.9720   -3.3210   -2.7550 C   0  0  0  0  0  0  0  0  0  0  0  0
   -5.6390   -3.4770   -3.1110 C   0  0  0  0  0  0  0  0  0  0  0  0
   -5.1940   -2.8390   -4.2640 C   0  0  0  0  0  0  0  0  0  0  0  0
   -6.0850   -2.0780   -5.0070 C   0  0  0  0  0  0  0  0  0  0  0  0
   -7.3470   -1.9600   -4.6270 N   0  0  0  0  0  0  0  0  0  0  0  0
  -12.1450   -0.9640   -2.3390 O   0  0  0  0  0  0  0  0  0  0  0  0
  -18.7610   -1.8760   -2.7390 F   0  0  0  0  0  0  0  0  0  0  0  0
  -18.4550    0.3250   -2.2750 F   0  0  0  0  0  0  0  0  0  0  0  0
  -19.1950   -1.1300   -0.7370 F   0  0  0  0  0  0  0  0  0  0  0  0
  -10.1467   -3.0903   -3.8357 C   0  0  0  0  0  0  0  0  0  0  0  0
  -10.1748   -2.6832   -3.5186 O   0  0  0  0  0  0  0  0  0  0  0  0
  -10.8348   -3.6094   -3.4381 C   0  0  0  0  0  0  0  0  0  0  0  0
  -10.6012   -1.9869   -4.7859 C   0  0  0  0  0  0  0  0  0  0  0  0
  1  2  2  0
  2  3  1  0
  2 16  1  0
  3  4  1  0
  3  6  2  0
  4  5  1  0
  6  7  1  0
  7 15  1  0
  7  8  1  0
 11 12  1  0
 12 28  1  0
 12 27  1  0
 12 26  1  0
 15 16  1  0
 15 25  2  0
 16 17  1  0
 17 18  1  0
 18 19  1  0
 18 29  1  0
 29 30  1  0
 29 31  1  0
 30 32  1  0
  8  9  2  0
  9 10  1  0
 10 11  2  0
 11 13  1  0
 13 14  2  0
 14  8  1  0
 19 20  2  0
 20 21  1  0
 21 22  2  0
 22 23  1  0
 23 24  2  0
 24 19  1  0
M  END

$$$$
No_185-gen_results_new/Mpro_new_generate_500/2024-01-19-21-58-56/
     RDKit          3D

 35 38  0  0  0  0  0  0  0  0999 V2000
   -9.1300   -2.9100    0.4520 O   0  0  0  0  0  0  0  0  0  0  0  0
  -10.2490   -2.6420    0.1800 C   0  0  0  0  0  0  0  0  0  0  0  0
  -11.3800   -3.0650    1.0860 C   0  0  0  0  0  0  0  0  0  0  0  0
  -11.2000   -3.8390    2.3880 C   0  0  0  0  0  0  0  0  0  0  0  0
  -10.9900   -5.0690    2.3420 N   0  0  0  0  0  0  0  0  0  0  0  0
  -12.7310   -2.7290    0.7330 N   0  0  0  0  0  0  0  0  0  0  0  0
  -12.9960   -1.9940   -0.4510 N   0  0  0  0  0  0  0  0  0  0  0  0
  -14.3580   -1.6940   -0.7530 C   0  0  0  0  0  0  0  0  0  0  0  0
  -15.0390   -0.7180   -0.0560 C   0  0  0  0  0  0  0  0  0  0  0  0
  -16.3510   -0.4690   -0.3980 C   0  0  0  0  0  0  0  0  0  0  0  0
  -16.9430   -1.2030   -1.4080 C   0  0  0  0  0  0  0  0  0  0  0  0
  -18.3840   -0.9560   -1.8060 C   0  0  0  0  0  0  0  0  0  0  0  0
  -16.2510   -2.1690   -2.1000 C   0  0  0  0  0  0  0  0  0  0  0  0
  -14.9490   -2.4160   -1.7590 C   0  0  0  0  0  0  0  0  0  0  0  0
  -11.9050   -1.5730   -1.3540 C   0  0  0  0  0  0  0  0  0  0  0  0
  -10.5280   -1.9050   -1.0240 N   0  0  0  0  0  0  0  0  0  0  0  0
   -9.4550   -1.4720   -1.9190 C   0  0  0  0  0  0  0  0  0  0  0  0
   -9.2820   -2.3940   -3.1270 C   0  0  0  0  0  0  0  0  0  0  0  0
   -7.8170   -2.5500   -3.5360 C   0  0  0  0  0  0  0  0  0  0  0  0
   -6.9720   -3.3210   -2.7550 C   0  0  0  0  0  0  0  0  0  0  0  0
   -5.6390   -3.4770   -3.1110 C   0  0  0  0  0  0  0  0  0  0  0  0
   -5.1940   -2.8390   -4.2640 C   0  0  0  0  0  0  0  0  0  0  0  0
   -6.0850   -2.0780   -5.0070 C   0  0  0  0  0  0  0  0  0  0  0  0
   -7.3470   -1.9600   -4.6270 N   0  0  0  0  0  0  0  0  0  0  0  0
  -12.1450   -0.9640   -2.3390 O   0  0  0  0  0  0  0  0  0  0  0  0
  -18.7610   -1.8760   -2.7390 F   0  0  0  0  0  0  0  0  0  0  0  0
  -18.4550    0.3250   -2.2750 F   0  0  0  0  0  0  0  0  0  0  0  0
  -19.1950   -1.1300   -0.7370 F   0  0  0  0  0  0  0  0  0  0  0  0
  -10.0453   -2.0069   -4.3181 C   0  0  0  0  0  0  0  0  0  0  0  0
   -9.8476   -3.8948   -2.8015 C   0  0  0  0  0  0  0  0  0  0  0  0
  -10.9871   -4.2370   -3.4678 C   0  0  0  0  0  0  0  0  0  0  0  0
  -12.0108   -5.0042   -3.0532 O   0  0  0  0  0  0  0  0  0  0  0  0
  -11.3508   -3.1888   -4.3064 C   0  0  0  0  0  0  0  0  0  0  0  0
  -12.3376   -4.9374   -1.6630 C   0  0  0  0  0  0  0  0  0  0  0  0
  -13.3250   -4.2246   -1.4238 F   0  0  0  0  0  0  0  0  0  0  0  0
  1  2  2  0
  2  3  1  0
  2 16  1  0
  3  4  1  0
  3  6  2  0
  4  5  1  0
  6  7  1  0
  7 15  1  0
  7  8  1  0
 11 12  1  0
 12 28  1  0
 12 27  1  0
 12 26  1  0
 15 16  1  0
 15 25  2  0
 16 17  1  0
 17 18  1  0
 18 19  1  0
 18 29  1  0
 18 30  1  0
 30 31  1  0
 31 32  1  0
 29 33  1  0
 31 33  1  0
 32 34  1  0
 34 35  1  0
  8  9  2  0
  9 10  1  0
 10 11  2  0
 11 13  1  0
 13 14  2  0
 14  8  1  0
 19 20  2  0
 20 21  1  0
 21 22  2  0
 22 23  1  0
 23 24  2  0
 24 19  1  0
M  END

$$$$
No_186-gen_results_new/Mpro_new_generate_500/2024-01-19-21-58-56/
     RDKit          3D

 33 36  0  0  0  0  0  0  0  0999 V2000
   -9.1300   -2.9100    0.4520 O   0  0  0  0  0  0  0  0  0  0  0  0
  -10.2490   -2.6420    0.1800 C   0  0  0  0  0  0  0  0  0  0  0  0
  -11.3800   -3.0650    1.0860 C   0  0  0  0  0  0  0  0  0  0  0  0
  -11.2000   -3.8390    2.3880 C   0  0  0  0  0  0  0  0  0  0  0  0
  -10.9900   -5.0690    2.3420 N   0  0  0  0  0  0  0  0  0  0  0  0
  -12.7310   -2.7290    0.7330 N   0  0  0  0  0  0  0  0  0  0  0  0
  -12.9960   -1.9940   -0.4510 N   0  0  0  0  0  0  0  0  0  0  0  0
  -14.3580   -1.6940   -0.7530 C   0  0  0  0  0  0  0  0  0  0  0  0
  -15.0390   -0.7180   -0.0560 C   0  0  0  0  0  0  0  0  0  0  0  0
  -16.3510   -0.4690   -0.3980 C   0  0  0  0  0  0  0  0  0  0  0  0
  -16.9430   -1.2030   -1.4080 C   0  0  0  0  0  0  0  0  0  0  0  0
  -18.3840   -0.9560   -1.8060 C   0  0  0  0  0  0  0  0  0  0  0  0
  -16.2510   -2.1690   -2.1000 C   0  0  0  0  0  0  0  0  0  0  0  0
  -14.9490   -2.4160   -1.7590 C   0  0  0  0  0  0  0  0  0  0  0  0
  -11.9050   -1.5730   -1.3540 C   0  0  0  0  0  0  0  0  0  0  0  0
  -10.5280   -1.9050   -1.0240 N   0  0  0  0  0  0  0  0  0  0  0  0
   -9.4550   -1.4720   -1.9190 C   0  0  0  0  0  0  0  0  0  0  0  0
   -9.2820   -2.3940   -3.1270 C   0  0  0  0  0  0  0  0  0  0  0  0
   -7.8170   -2.5500   -3.5360 C   0  0  0  0  0  0  0  0  0  0  0  0
   -6.9720   -3.3210   -2.7550 C   0  0  0  0  0  0  0  0  0  0  0  0
   -5.6390   -3.4770   -3.1110 C   0  0  0  0  0  0  0  0  0  0  0  0
   -5.1940   -2.8390   -4.2640 C   0  0  0  0  0  0  0  0  0  0  0  0
   -6.0850   -2.0780   -5.0070 C   0  0  0  0  0  0  0  0  0  0  0  0
   -7.3470   -1.9600   -4.6270 N   0  0  0  0  0  0  0  0  0  0  0  0
  -12.1450   -0.9640   -2.3390 O   0  0  0  0  0  0  0  0  0  0  0  0
  -18.7610   -1.8760   -2.7390 F   0  0  0  0  0  0  0  0  0  0  0  0
  -18.4550    0.3250   -2.2750 F   0  0  0  0  0  0  0  0  0  0  0  0
  -19.1950   -1.1300   -0.7370 F   0  0  0  0  0  0  0  0  0  0  0  0
  -10.0453   -2.0069   -4.3181 C   0  0  0  0  0  0  0  0  0  0  0  0
   -9.8903   -3.8143   -2.9484 C   0  0  0  0  0  0  0  0  0  0  0  0
  -10.8021   -4.2389   -3.8324 C   0  0  0  0  0  0  0  0  0  0  0  0
  -11.0335   -2.9113   -4.5758 C   0  0  0  0  0  0  0  0  0  0  0  0
   -9.5840   -1.7919   -5.4489 F   0  0  0  0  0  0  0  0  0  0  0  0
  1  2  2  0
  2  3  1  0
  2 16  1  0
  3  4  1  0
  3  6  2  0
  4  5  1  0
  6  7  1  0
  7 15  1  0
  7  8  1  0
 11 12  1  0
 12 28  1  0
 12 27  1  0
 12 26  1  0
 15 16  1  0
 15 25  2  0
 16 17  1  0
 17 18  1  0
 18 19  1  0
 18 29  1  0
 18 30  1  0
 30 31  1  0
 29 32  2  0
 31 32  1  0
 29 33  1  0
  8  9  2  0
  9 10  1  0
 10 11  2  0
 11 13  1  0
 13 14  2  0
 14  8  1  0
 19 20  2  0
 20 21  1  0
 21 22  2  0
 22 23  1  0
 23 24  2  0
 24 19  1  0
M  END

$$$$
No_187-gen_results_new/Mpro_new_generate_500/2024-01-19-21-58-56/
     RDKit          3D

 35 38  0  0  0  0  0  0  0  0999 V2000
   -9.1300   -2.9100    0.4520 O   0  0  0  0  0  0  0  0  0  0  0  0
  -10.2490   -2.6420    0.1800 C   0  0  0  0  0  0  0  0  0  0  0  0
  -11.3800   -3.0650    1.0860 C   0  0  0  0  0  0  0  0  0  0  0  0
  -11.2000   -3.8390    2.3880 C   0  0  0  0  0  0  0  0  0  0  0  0
  -10.9900   -5.0690    2.3420 N   0  0  0  0  0  0  0  0  0  0  0  0
  -12.7310   -2.7290    0.7330 N   0  0  0  0  0  0  0  0  0  0  0  0
  -12.9960   -1.9940   -0.4510 N   0  0  0  0  0  0  0  0  0  0  0  0
  -14.3580   -1.6940   -0.7530 C   0  0  0  0  0  0  0  0  0  0  0  0
  -15.0390   -0.7180   -0.0560 C   0  0  0  0  0  0  0  0  0  0  0  0
  -16.3510   -0.4690   -0.3980 C   0  0  0  0  0  0  0  0  0  0  0  0
  -16.9430   -1.2030   -1.4080 C   0  0  0  0  0  0  0  0  0  0  0  0
  -18.3840   -0.9560   -1.8060 C   0  0  0  0  0  0  0  0  0  0  0  0
  -16.2510   -2.1690   -2.1000 C   0  0  0  0  0  0  0  0  0  0  0  0
  -14.9490   -2.4160   -1.7590 C   0  0  0  0  0  0  0  0  0  0  0  0
  -11.9050   -1.5730   -1.3540 C   0  0  0  0  0  0  0  0  0  0  0  0
  -10.5280   -1.9050   -1.0240 N   0  0  0  0  0  0  0  0  0  0  0  0
   -9.4550   -1.4720   -1.9190 C   0  0  0  0  0  0  0  0  0  0  0  0
   -9.2820   -2.3940   -3.1270 C   0  0  0  0  0  0  0  0  0  0  0  0
   -7.8170   -2.5500   -3.5360 C   0  0  0  0  0  0  0  0  0  0  0  0
   -6.9720   -3.3210   -2.7550 C   0  0  0  0  0  0  0  0  0  0  0  0
   -5.6390   -3.4770   -3.1110 C   0  0  0  0  0  0  0  0  0  0  0  0
   -5.1940   -2.8390   -4.2640 C   0  0  0  0  0  0  0  0  0  0  0  0
   -6.0850   -2.0780   -5.0070 C   0  0  0  0  0  0  0  0  0  0  0  0
   -7.3470   -1.9600   -4.6270 N   0  0  0  0  0  0  0  0  0  0  0  0
  -12.1450   -0.9640   -2.3390 O   0  0  0  0  0  0  0  0  0  0  0  0
  -18.7610   -1.8760   -2.7390 F   0  0  0  0  0  0  0  0  0  0  0  0
  -18.4550    0.3250   -2.2750 F   0  0  0  0  0  0  0  0  0  0  0  0
  -19.1950   -1.1300   -0.7370 F   0  0  0  0  0  0  0  0  0  0  0  0
   -9.7920   -3.7475   -2.8656 C   0  0  0  0  0  0  0  0  0  0  0  0
  -10.1387   -2.0206   -4.2903 C   0  0  0  0  0  0  0  0  0  0  0  0
  -10.1257   -4.6809   -3.9732 C   0  0  0  0  0  0  0  0  0  0  0  0
  -10.3915   -6.0009   -3.7336 O   0  0  0  0  0  0  0  0  0  0  0  0
  -10.4577   -4.1219   -5.2322 C   0  0  0  0  0  0  0  0  0  0  0  0
  -10.7365   -2.7663   -5.2496 C   0  0  0  0  0  0  0  0  0  0  0  0
   -9.1056   -6.5747   -3.6801 C   0  0  0  0  0  0  0  0  0  0  0  0
  1  2  2  0
  2  3  1  0
  2 16  1  0
  3  4  1  0
  3  6  2  0
  4  5  1  0
  6  7  1  0
  7 15  1  0
  7  8  1  0
 11 12  1  0
 12 28  1  0
 12 27  1  0
 12 26  1  0
 15 16  1  0
 15 25  2  0
 16 17  1  0
 17 18  1  0
 18 19  1  0
 18 29  1  0
 18 30  1  0
 31 32  1  0
 31 33  1  0
 30 34  1  0
 32 35  1  0
 29 31  1  0
 33 34  1  0
  8  9  2  0
  9 10  1  0
 10 11  2  0
 11 13  1  0
 13 14  2  0
 14  8  1  0
 19 20  2  0
 20 21  1  0
 21 22  2  0
 22 23  1  0
 23 24  2  0
 24 19  1  0
M  END

$$$$
No_188-gen_results_new/Mpro_new_generate_500/2024-01-19-21-58-56/
     RDKit          3D

 33 35  0  0  0  0  0  0  0  0999 V2000
   -9.1300   -2.9100    0.4520 O   0  0  0  0  0  0  0  0  0  0  0  0
  -10.2490   -2.6420    0.1800 C   0  0  0  0  0  0  0  0  0  0  0  0
  -11.3800   -3.0650    1.0860 C   0  0  0  0  0  0  0  0  0  0  0  0
  -11.2000   -3.8390    2.3880 C   0  0  0  0  0  0  0  0  0  0  0  0
  -10.9900   -5.0690    2.3420 N   0  0  0  0  0  0  0  0  0  0  0  0
  -12.7310   -2.7290    0.7330 N   0  0  0  0  0  0  0  0  0  0  0  0
  -12.9960   -1.9940   -0.4510 N   0  0  0  0  0  0  0  0  0  0  0  0
  -14.3580   -1.6940   -0.7530 C   0  0  0  0  0  0  0  0  0  0  0  0
  -15.0390   -0.7180   -0.0560 C   0  0  0  0  0  0  0  0  0  0  0  0
  -16.3510   -0.4690   -0.3980 C   0  0  0  0  0  0  0  0  0  0  0  0
  -16.9430   -1.2030   -1.4080 C   0  0  0  0  0  0  0  0  0  0  0  0
  -18.3840   -0.9560   -1.8060 C   0  0  0  0  0  0  0  0  0  0  0  0
  -16.2510   -2.1690   -2.1000 C   0  0  0  0  0  0  0  0  0  0  0  0
  -14.9490   -2.4160   -1.7590 C   0  0  0  0  0  0  0  0  0  0  0  0
  -11.9050   -1.5730   -1.3540 C   0  0  0  0  0  0  0  0  0  0  0  0
  -10.5280   -1.9050   -1.0240 N   0  0  0  0  0  0  0  0  0  0  0  0
   -9.4550   -1.4720   -1.9190 C   0  0  0  0  0  0  0  0  0  0  0  0
   -9.2820   -2.3940   -3.1270 C   0  0  0  0  0  0  0  0  0  0  0  0
   -7.8170   -2.5500   -3.5360 C   0  0  0  0  0  0  0  0  0  0  0  0
   -6.9720   -3.3210   -2.7550 C   0  0  0  0  0  0  0  0  0  0  0  0
   -5.6390   -3.4770   -3.1110 C   0  0  0  0  0  0  0  0  0  0  0  0
   -5.1940   -2.8390   -4.2640 C   0  0  0  0  0  0  0  0  0  0  0  0
   -6.0850   -2.0780   -5.0070 C   0  0  0  0  0  0  0  0  0  0  0  0
   -7.3470   -1.9600   -4.6270 N   0  0  0  0  0  0  0  0  0  0  0  0
  -12.1450   -0.9640   -2.3390 O   0  0  0  0  0  0  0  0  0  0  0  0
  -18.7610   -1.8760   -2.7390 F   0  0  0  0  0  0  0  0  0  0  0  0
  -18.4550    0.3250   -2.2750 F   0  0  0  0  0  0  0  0  0  0  0  0
  -19.1950   -1.1300   -0.7370 F   0  0  0  0  0  0  0  0  0  0  0  0
  -10.1467   -3.0903   -3.8357 C   0  0  0  0  0  0  0  0  0  0  0  0
  -10.1681   -2.5855   -3.6007 C   0  0  0  0  0  0  0  0  0  0  0  0
  -11.3786   -2.6371   -3.4158 O   0  0  0  0  0  0  0  0  0  0  0  0
  -12.3591   -2.3066   -4.0396 C   0  0  0  0  0  0  0  0  0  0  0  0
  -10.1774   -2.0330   -4.9008 O   0  0  0  0  0  0  0  0  0  0  0  0
  1  2  2  0
  2  3  1  0
  2 16  1  0
  3  4  1  0
  3  6  2  0
  4  5  1  0
  6  7  1  0
  7 15  1  0
  7  8  1  0
 11 12  1  0
 12 28  1  0
 12 27  1  0
 12 26  1  0
 15 16  1  0
 15 25  2  0
 16 17  1  0
 17 18  1  0
 18 19  1  0
 18 29  1  0
 29 30  1  0
 30 31  1  0
 31 32  1  0
 30 33  2  0
  8  9  2  0
  9 10  1  0
 10 11  2  0
 11 13  1  0
 13 14  2  0
 14  8  1  0
 19 20  2  0
 20 21  1  0
 21 22  2  0
 22 23  1  0
 23 24  2  0
 24 19  1  0
M  END

$$$$
No_189-gen_results_new/Mpro_new_generate_500/2024-01-19-21-58-56/
     RDKit          3D

 33 36  0  0  0  0  0  0  0  0999 V2000
   -9.1300   -2.9100    0.4520 O   0  0  0  0  0  0  0  0  0  0  0  0
  -10.2490   -2.6420    0.1800 C   0  0  0  0  0  0  0  0  0  0  0  0
  -11.3800   -3.0650    1.0860 C   0  0  0  0  0  0  0  0  0  0  0  0
  -11.2000   -3.8390    2.3880 C   0  0  0  0  0  0  0  0  0  0  0  0
  -10.9900   -5.0690    2.3420 N   0  0  0  0  0  0  0  0  0  0  0  0
  -12.7310   -2.7290    0.7330 N   0  0  0  0  0  0  0  0  0  0  0  0
  -12.9960   -1.9940   -0.4510 N   0  0  0  0  0  0  0  0  0  0  0  0
  -14.3580   -1.6940   -0.7530 C   0  0  0  0  0  0  0  0  0  0  0  0
  -15.0390   -0.7180   -0.0560 C   0  0  0  0  0  0  0  0  0  0  0  0
  -16.3510   -0.4690   -0.3980 C   0  0  0  0  0  0  0  0  0  0  0  0
  -16.9430   -1.2030   -1.4080 C   0  0  0  0  0  0  0  0  0  0  0  0
  -18.3840   -0.9560   -1.8060 C   0  0  0  0  0  0  0  0  0  0  0  0
  -16.2510   -2.1690   -2.1000 C   0  0  0  0  0  0  0  0  0  0  0  0
  -14.9490   -2.4160   -1.7590 C   0  0  0  0  0  0  0  0  0  0  0  0
  -11.9050   -1.5730   -1.3540 C   0  0  0  0  0  0  0  0  0  0  0  0
  -10.5280   -1.9050   -1.0240 N   0  0  0  0  0  0  0  0  0  0  0  0
   -9.4550   -1.4720   -1.9190 C   0  0  0  0  0  0  0  0  0  0  0  0
   -9.2820   -2.3940   -3.1270 C   0  0  0  0  0  0  0  0  0  0  0  0
   -7.8170   -2.5500   -3.5360 C   0  0  0  0  0  0  0  0  0  0  0  0
   -6.9720   -3.3210   -2.7550 C   0  0  0  0  0  0  0  0  0  0  0  0
   -5.6390   -3.4770   -3.1110 C   0  0  0  0  0  0  0  0  0  0  0  0
   -5.1940   -2.8390   -4.2640 C   0  0  0  0  0  0  0  0  0  0  0  0
   -6.0850   -2.0780   -5.0070 C   0  0  0  0  0  0  0  0  0  0  0  0
   -7.3470   -1.9600   -4.6270 N   0  0  0  0  0  0  0  0  0  0  0  0
  -12.1450   -0.9640   -2.3390 O   0  0  0  0  0  0  0  0  0  0  0  0
  -18.7610   -1.8760   -2.7390 F   0  0  0  0  0  0  0  0  0  0  0  0
  -18.4550    0.3250   -2.2750 F   0  0  0  0  0  0  0  0  0  0  0  0
  -19.1950   -1.1300   -0.7370 F   0  0  0  0  0  0  0  0  0  0  0  0
   -9.7920   -3.7475   -2.8656 C   0  0  0  0  0  0  0  0  0  0  0  0
  -10.2798   -1.8938   -4.4763 S   0  0  0  0  0  0  0  0  0  0  0  0
  -10.1122   -3.4563   -5.3870 C   0  0  0  0  0  0  0  0  0  0  0  0
  -10.2855   -4.3908   -4.2199 C   0  0  0  0  0  0  0  0  0  0  0  0
   -9.7527   -0.7994   -5.3849 O   0  0  0  0  0  0  0  0  0  0  0  0
  1  2  2  0
  2  3  1  0
  2 16  1  0
  3  4  1  0
  3  6  2  0
  4  5  1  0
  6  7  1  0
  7 15  1  0
  7  8  1  0
 11 12  1  0
 12 28  1  0
 12 27  1  0
 12 26  1  0
 15 16  1  0
 15 25  2  0
 16 17  1  0
 17 18  1  0
 18 19  1  0
 18 29  1  0
 18 30  1  0
 30 31  1  0
 29 32  1  0
 31 32  2  0
 30 33  2  0
  8  9  2  0
  9 10  1  0
 10 11  2  0
 11 13  1  0
 13 14  2  0
 14  8  1  0
 19 20  2  0
 20 21  1  0
 21 22  2  0
 22 23  1  0
 23 24  2  0
 24 19  1  0
M  END

$$$$
No_190-gen_results_new/Mpro_new_generate_500/2024-01-19-21-58-56/
     RDKit          3D

 34 37  0  0  0  0  0  0  0  0999 V2000
   -9.1300   -2.9100    0.4520 O   0  0  0  0  0  0  0  0  0  0  0  0
  -10.2490   -2.6420    0.1800 C   0  0  0  0  0  0  0  0  0  0  0  0
  -11.3800   -3.0650    1.0860 C   0  0  0  0  0  0  0  0  0  0  0  0
  -11.2000   -3.8390    2.3880 C   0  0  0  0  0  0  0  0  0  0  0  0
  -10.9900   -5.0690    2.3420 N   0  0  0  0  0  0  0  0  0  0  0  0
  -12.7310   -2.7290    0.7330 N   0  0  0  0  0  0  0  0  0  0  0  0
  -12.9960   -1.9940   -0.4510 N   0  0  0  0  0  0  0  0  0  0  0  0
  -14.3580   -1.6940   -0.7530 C   0  0  0  0  0  0  0  0  0  0  0  0
  -15.0390   -0.7180   -0.0560 C   0  0  0  0  0  0  0  0  0  0  0  0
  -16.3510   -0.4690   -0.3980 C   0  0  0  0  0  0  0  0  0  0  0  0
  -16.9430   -1.2030   -1.4080 C   0  0  0  0  0  0  0  0  0  0  0  0
  -18.3840   -0.9560   -1.8060 C   0  0  0  0  0  0  0  0  0  0  0  0
  -16.2510   -2.1690   -2.1000 C   0  0  0  0  0  0  0  0  0  0  0  0
  -14.9490   -2.4160   -1.7590 C   0  0  0  0  0  0  0  0  0  0  0  0
  -11.9050   -1.5730   -1.3540 C   0  0  0  0  0  0  0  0  0  0  0  0
  -10.5280   -1.9050   -1.0240 N   0  0  0  0  0  0  0  0  0  0  0  0
   -9.4550   -1.4720   -1.9190 C   0  0  0  0  0  0  0  0  0  0  0  0
   -9.2820   -2.3940   -3.1270 C   0  0  0  0  0  0  0  0  0  0  0  0
   -7.8170   -2.5500   -3.5360 C   0  0  0  0  0  0  0  0  0  0  0  0
   -6.9720   -3.3210   -2.7550 C   0  0  0  0  0  0  0  0  0  0  0  0
   -5.6390   -3.4770   -3.1110 C   0  0  0  0  0  0  0  0  0  0  0  0
   -5.1940   -2.8390   -4.2640 C   0  0  0  0  0  0  0  0  0  0  0  0
   -6.0850   -2.0780   -5.0070 C   0  0  0  0  0  0  0  0  0  0  0  0
   -7.3470   -1.9600   -4.6270 N   0  0  0  0  0  0  0  0  0  0  0  0
  -12.1450   -0.9640   -2.3390 O   0  0  0  0  0  0  0  0  0  0  0  0
  -18.7610   -1.8760   -2.7390 F   0  0  0  0  0  0  0  0  0  0  0  0
  -18.4550    0.3250   -2.2750 F   0  0  0  0  0  0  0  0  0  0  0  0
  -19.1950   -1.1300   -0.7370 F   0  0  0  0  0  0  0  0  0  0  0  0
   -9.7920   -3.7475   -2.8656 C   0  0  0  0  0  0  0  0  0  0  0  0
  -10.1387   -2.0206   -4.2903 C   0  0  0  0  0  0  0  0  0  0  0  0
  -10.7383   -4.2958   -3.7467 C   0  0  0  0  0  0  0  0  0  0  0  0
  -11.6625   -5.3353   -3.4491 F   0  0  0  0  0  0  0  0  0  0  0  0
  -11.1590   -3.0935   -4.4980 C   0  0  0  0  0  0  0  0  0  0  0  0
   -9.9700   -5.2706   -4.9061 C   0  0  0  0  0  0  0  0  0  0  0  0
  1  2  2  0
  2  3  1  0
  2 16  1  0
  3  4  1  0
  3  6  2  0
  4  5  1  0
  6  7  1  0
  7 15  1  0
  7  8  1  0
 11 12  1  0
 12 28  1  0
 12 27  1  0
 12 26  1  0
 15 16  1  0
 15 25  2  0
 16 17  1  0
 17 18  1  0
 18 19  1  0
 18 29  1  0
 18 30  1  0
 29 31  1  0
 31 32  1  0
 30 33  2  0
 31 33  1  0
 31 34  1  0
  8  9  2  0
  9 10  1  0
 10 11  2  0
 11 13  1  0
 13 14  2  0
 14  8  1  0
 19 20  2  0
 20 21  1  0
 21 22  2  0
 22 23  1  0
 23 24  2  0
 24 19  1  0
M  END

$$$$
No_191-gen_results_new/Mpro_new_generate_500/2024-01-19-21-58-56/
     RDKit          3D

 35 38  0  0  0  0  0  0  0  0999 V2000
   -9.1300   -2.9100    0.4520 O   0  0  0  0  0  0  0  0  0  0  0  0
  -10.2490   -2.6420    0.1800 C   0  0  0  0  0  0  0  0  0  0  0  0
  -11.3800   -3.0650    1.0860 C   0  0  0  0  0  0  0  0  0  0  0  0
  -11.2000   -3.8390    2.3880 C   0  0  0  0  0  0  0  0  0  0  0  0
  -10.9900   -5.0690    2.3420 N   0  0  0  0  0  0  0  0  0  0  0  0
  -12.7310   -2.7290    0.7330 N   0  0  0  0  0  0  0  0  0  0  0  0
  -12.9960   -1.9940   -0.4510 N   0  0  0  0  0  0  0  0  0  0  0  0
  -14.3580   -1.6940   -0.7530 C   0  0  0  0  0  0  0  0  0  0  0  0
  -15.0390   -0.7180   -0.0560 C   0  0  0  0  0  0  0  0  0  0  0  0
  -16.3510   -0.4690   -0.3980 C   0  0  0  0  0  0  0  0  0  0  0  0
  -16.9430   -1.2030   -1.4080 C   0  0  0  0  0  0  0  0  0  0  0  0
  -18.3840   -0.9560   -1.8060 C   0  0  0  0  0  0  0  0  0  0  0  0
  -16.2510   -2.1690   -2.1000 C   0  0  0  0  0  0  0  0  0  0  0  0
  -14.9490   -2.4160   -1.7590 C   0  0  0  0  0  0  0  0  0  0  0  0
  -11.9050   -1.5730   -1.3540 C   0  0  0  0  0  0  0  0  0  0  0  0
  -10.5280   -1.9050   -1.0240 N   0  0  0  0  0  0  0  0  0  0  0  0
   -9.4550   -1.4720   -1.9190 C   0  0  0  0  0  0  0  0  0  0  0  0
   -9.2820   -2.3940   -3.1270 C   0  0  0  0  0  0  0  0  0  0  0  0
   -7.8170   -2.5500   -3.5360 C   0  0  0  0  0  0  0  0  0  0  0  0
   -6.9720   -3.3210   -2.7550 C   0  0  0  0  0  0  0  0  0  0  0  0
   -5.6390   -3.4770   -3.1110 C   0  0  0  0  0  0  0  0  0  0  0  0
   -5.1940   -2.8390   -4.2640 C   0  0  0  0  0  0  0  0  0  0  0  0
   -6.0850   -2.0780   -5.0070 C   0  0  0  0  0  0  0  0  0  0  0  0
   -7.3470   -1.9600   -4.6270 N   0  0  0  0  0  0  0  0  0  0  0  0
  -12.1450   -0.9640   -2.3390 O   0  0  0  0  0  0  0  0  0  0  0  0
  -18.7610   -1.8760   -2.7390 F   0  0  0  0  0  0  0  0  0  0  0  0
  -18.4550    0.3250   -2.2750 F   0  0  0  0  0  0  0  0  0  0  0  0
  -19.1950   -1.1300   -0.7370 F   0  0  0  0  0  0  0  0  0  0  0  0
  -10.0899   -3.0088   -3.7244 O   0  0  0  0  0  0  0  0  0  0  0  0
  -16.7844   -3.0180   -3.1233 O   0  0  0  0  0  0  0  0  0  0  0  0
  -16.5408   -4.4495   -2.9958 C   0  0  0  0  0  0  0  0  0  0  0  0
  -15.5473   -4.4608   -4.3263 C   0  0  0  0  0  0  0  0  0  0  0  0
  -14.6018   -5.7221   -3.9473 C   0  0  0  0  0  0  0  0  0  0  0  0
  -14.3164   -5.7279   -2.5285 C   0  0  0  0  0  0  0  0  0  0  0  0
  -15.6321   -5.3003   -1.8810 C   0  0  0  0  0  0  0  0  0  0  0  0
  1  2  2  0
  2  3  1  0
  2 16  1  0
  3  4  1  0
  3  6  2  0
  4  5  1  0
  6  7  1  0
  7 15  1  0
  7  8  1  0
 11 12  1  0
 12 28  1  0
 12 27  1  0
 12 26  1  0
 15 16  1  0
 15 25  2  0
 16 17  1  0
 17 18  1  0
 18 19  1  0
 18 29  2  0
 13 30  1  0
 30 31  1  0
 31 32  1  0
 32 33  2  0
 33 34  1  0
 31 35  1  0
 34 35  1  0
  8  9  2  0
  9 10  1  0
 10 11  2  0
 11 13  1  0
 13 14  2  0
 14  8  1  0
 19 20  2  0
 20 21  1  0
 21 22  2  0
 22 23  1  0
 23 24  2  0
 24 19  1  0
M  END

$$$$
No_192-gen_results_new/Mpro_new_generate_500/2024-01-19-21-58-56/
     RDKit          3D

 35 37  0  0  0  0  0  0  0  0999 V2000
   -9.1300   -2.9100    0.4520 O   0  0  0  0  0  0  0  0  0  0  0  0
  -10.2490   -2.6420    0.1800 C   0  0  0  0  0  0  0  0  0  0  0  0
  -11.3800   -3.0650    1.0860 C   0  0  0  0  0  0  0  0  0  0  0  0
  -11.2000   -3.8390    2.3880 C   0  0  0  0  0  0  0  0  0  0  0  0
  -10.9900   -5.0690    2.3420 N   0  0  0  0  0  0  0  0  0  0  0  0
  -12.7310   -2.7290    0.7330 N   0  0  0  0  0  0  0  0  0  0  0  0
  -12.9960   -1.9940   -0.4510 N   0  0  0  0  0  0  0  0  0  0  0  0
  -14.3580   -1.6940   -0.7530 C   0  0  0  0  0  0  0  0  0  0  0  0
  -15.0390   -0.7180   -0.0560 C   0  0  0  0  0  0  0  0  0  0  0  0
  -16.3510   -0.4690   -0.3980 C   0  0  0  0  0  0  0  0  0  0  0  0
  -16.9430   -1.2030   -1.4080 C   0  0  0  0  0  0  0  0  0  0  0  0
  -18.3840   -0.9560   -1.8060 C   0  0  0  0  0  0  0  0  0  0  0  0
  -16.2510   -2.1690   -2.1000 C   0  0  0  0  0  0  0  0  0  0  0  0
  -14.9490   -2.4160   -1.7590 C   0  0  0  0  0  0  0  0  0  0  0  0
  -11.9050   -1.5730   -1.3540 C   0  0  0  0  0  0  0  0  0  0  0  0
  -10.5280   -1.9050   -1.0240 N   0  0  0  0  0  0  0  0  0  0  0  0
   -9.4550   -1.4720   -1.9190 C   0  0  0  0  0  0  0  0  0  0  0  0
   -9.2820   -2.3940   -3.1270 C   0  0  0  0  0  0  0  0  0  0  0  0
   -7.8170   -2.5500   -3.5360 C   0  0  0  0  0  0  0  0  0  0  0  0
   -6.9720   -3.3210   -2.7550 C   0  0  0  0  0  0  0  0  0  0  0  0
   -5.6390   -3.4770   -3.1110 C   0  0  0  0  0  0  0  0  0  0  0  0
   -5.1940   -2.8390   -4.2640 C   0  0  0  0  0  0  0  0  0  0  0  0
   -6.0850   -2.0780   -5.0070 C   0  0  0  0  0  0  0  0  0  0  0  0
   -7.3470   -1.9600   -4.6270 N   0  0  0  0  0  0  0  0  0  0  0  0
  -12.1450   -0.9640   -2.3390 O   0  0  0  0  0  0  0  0  0  0  0  0
  -18.7610   -1.8760   -2.7390 F   0  0  0  0  0  0  0  0  0  0  0  0
  -18.4550    0.3250   -2.2750 F   0  0  0  0  0  0  0  0  0  0  0  0
  -19.1950   -1.1300   -0.7370 F   0  0  0  0  0  0  0  0  0  0  0  0
   -9.7920   -3.7475   -2.8656 C   0  0  0  0  0  0  0  0  0  0  0  0
  -10.0717   -1.8029   -4.3549 C   0  0  0  0  0  0  0  0  0  0  0  0
   -9.3562   -4.4506   -1.8919 O   0  0  0  0  0  0  0  0  0  0  0  0
  -10.8567   -4.1572   -3.1732 O   0  0  0  0  0  0  0  0  0  0  0  0
  -11.6428   -4.7943   -3.3958 C   0  0  0  0  0  0  0  0  0  0  0  0
  -13.0441   -4.6234   -2.6139 C   0  0  0  0  0  0  0  0  0  0  0  0
  -14.0357   -5.6361   -3.1037 N   0  0  0  0  0  0  0  0  0  0  0  0
  1  2  2  0
  2  3  1  0
  2 16  1  0
  3  4  1  0
  3  6  2  0
  4  5  1  0
  6  7  1  0
  7 15  1  0
  7  8  1  0
 11 12  1  0
 12 28  1  0
 12 27  1  0
 12 26  1  0
 15 16  1  0
 15 25  2  0
 16 17  1  0
 17 18  1  0
 18 19  1  0
 18 29  1  0
 18 30  1  0
 29 31  2  0
 29 32  1  0
 32 33  1  0
 33 34  1  0
 34 35  1  0
  8  9  2  0
  9 10  1  0
 10 11  2  0
 11 13  1  0
 13 14  2  0
 14  8  1  0
 19 20  2  0
 20 21  1  0
 21 22  2  0
 22 23  1  0
 23 24  2  0
 24 19  1  0
M  END

$$$$
No_193-gen_results_new/Mpro_new_generate_500/2024-01-19-21-58-56/
     RDKit          3D

 33 35  0  0  0  0  0  0  0  0999 V2000
   -9.1300   -2.9100    0.4520 O   0  0  0  0  0  0  0  0  0  0  0  0
  -10.2490   -2.6420    0.1800 C   0  0  0  0  0  0  0  0  0  0  0  0
  -11.3800   -3.0650    1.0860 C   0  0  0  0  0  0  0  0  0  0  0  0
  -11.2000   -3.8390    2.3880 C   0  0  0  0  0  0  0  0  0  0  0  0
  -10.9900   -5.0690    2.3420 N   0  0  0  0  0  0  0  0  0  0  0  0
  -12.7310   -2.7290    0.7330 N   0  0  0  0  0  0  0  0  0  0  0  0
  -12.9960   -1.9940   -0.4510 N   0  0  0  0  0  0  0  0  0  0  0  0
  -14.3580   -1.6940   -0.7530 C   0  0  0  0  0  0  0  0  0  0  0  0
  -15.0390   -0.7180   -0.0560 C   0  0  0  0  0  0  0  0  0  0  0  0
  -16.3510   -0.4690   -0.3980 C   0  0  0  0  0  0  0  0  0  0  0  0
  -16.9430   -1.2030   -1.4080 C   0  0  0  0  0  0  0  0  0  0  0  0
  -18.3840   -0.9560   -1.8060 C   0  0  0  0  0  0  0  0  0  0  0  0
  -16.2510   -2.1690   -2.1000 C   0  0  0  0  0  0  0  0  0  0  0  0
  -14.9490   -2.4160   -1.7590 C   0  0  0  0  0  0  0  0  0  0  0  0
  -11.9050   -1.5730   -1.3540 C   0  0  0  0  0  0  0  0  0  0  0  0
  -10.5280   -1.9050   -1.0240 N   0  0  0  0  0  0  0  0  0  0  0  0
   -9.4550   -1.4720   -1.9190 C   0  0  0  0  0  0  0  0  0  0  0  0
   -9.2820   -2.3940   -3.1270 C   0  0  0  0  0  0  0  0  0  0  0  0
   -7.8170   -2.5500   -3.5360 C   0  0  0  0  0  0  0  0  0  0  0  0
   -6.9720   -3.3210   -2.7550 C   0  0  0  0  0  0  0  0  0  0  0  0
   -5.6390   -3.4770   -3.1110 C   0  0  0  0  0  0  0  0  0  0  0  0
   -5.1940   -2.8390   -4.2640 C   0  0  0  0  0  0  0  0  0  0  0  0
   -6.0850   -2.0780   -5.0070 C   0  0  0  0  0  0  0  0  0  0  0  0
   -7.3470   -1.9600   -4.6270 N   0  0  0  0  0  0  0  0  0  0  0  0
  -12.1450   -0.9640   -2.3390 O   0  0  0  0  0  0  0  0  0  0  0  0
  -18.7610   -1.8760   -2.7390 F   0  0  0  0  0  0  0  0  0  0  0  0
  -18.4550    0.3250   -2.2750 F   0  0  0  0  0  0  0  0  0  0  0  0
  -19.1950   -1.1300   -0.7370 F   0  0  0  0  0  0  0  0  0  0  0  0
   -9.7920   -3.7475   -2.8656 C   0  0  0  0  0  0  0  0  0  0  0  0
  -10.0717   -1.8029   -4.3549 C   0  0  0  0  0  0  0  0  0  0  0  0
   -9.2295   -4.7877   -2.1591 C   0  0  0  0  0  0  0  0  0  0  0  0
  -11.1941   -4.0165   -3.0126 C   0  0  0  0  0  0  0  0  0  0  0  0
   -9.8236   -5.9473   -1.7239 C   0  0  0  0  0  0  0  0  0  0  0  0
  1  2  2  0
  2  3  1  0
  2 16  1  0
  3  4  1  0
  3  6  2  0
  4  5  1  0
  6  7  1  0
  7 15  1  0
  7  8  1  0
 11 12  1  0
 12 28  1  0
 12 27  1  0
 12 26  1  0
 15 16  1  0
 15 25  2  0
 16 17  1  0
 17 18  1  0
 18 19  1  0
 18 29  1  0
 18 30  1  0
 29 31  2  3
 29 32  1  0
 31 33  1  0
  8  9  2  0
  9 10  1  0
 10 11  2  0
 11 13  1  0
 13 14  2  0
 14  8  1  0
 19 20  2  0
 20 21  1  0
 21 22  2  0
 22 23  1  0
 23 24  2  0
 24 19  1  0
M  END

$$$$
No_194-gen_results_new/Mpro_new_generate_500/2024-01-19-21-58-56/
     RDKit          3D

 35 38  0  0  0  0  0  0  0  0999 V2000
   -9.1300   -2.9100    0.4520 O   0  0  0  0  0  0  0  0  0  0  0  0
  -10.2490   -2.6420    0.1800 C   0  0  0  0  0  0  0  0  0  0  0  0
  -11.3800   -3.0650    1.0860 C   0  0  0  0  0  0  0  0  0  0  0  0
  -11.2000   -3.8390    2.3880 C   0  0  0  0  0  0  0  0  0  0  0  0
  -10.9900   -5.0690    2.3420 N   0  0  0  0  0  0  0  0  0  0  0  0
  -12.7310   -2.7290    0.7330 N   0  0  0  0  0  0  0  0  0  0  0  0
  -12.9960   -1.9940   -0.4510 N   0  0  0  0  0  0  0  0  0  0  0  0
  -14.3580   -1.6940   -0.7530 C   0  0  0  0  0  0  0  0  0  0  0  0
  -15.0390   -0.7180   -0.0560 C   0  0  0  0  0  0  0  0  0  0  0  0
  -16.3510   -0.4690   -0.3980 C   0  0  0  0  0  0  0  0  0  0  0  0
  -16.9430   -1.2030   -1.4080 C   0  0  0  0  0  0  0  0  0  0  0  0
  -18.3840   -0.9560   -1.8060 C   0  0  0  0  0  0  0  0  0  0  0  0
  -16.2510   -2.1690   -2.1000 C   0  0  0  0  0  0  0  0  0  0  0  0
  -14.9490   -2.4160   -1.7590 C   0  0  0  0  0  0  0  0  0  0  0  0
  -11.9050   -1.5730   -1.3540 C   0  0  0  0  0  0  0  0  0  0  0  0
  -10.5280   -1.9050   -1.0240 N   0  0  0  0  0  0  0  0  0  0  0  0
   -9.4550   -1.4720   -1.9190 C   0  0  0  0  0  0  0  0  0  0  0  0
   -9.2820   -2.3940   -3.1270 C   0  0  0  0  0  0  0  0  0  0  0  0
   -7.8170   -2.5500   -3.5360 C   0  0  0  0  0  0  0  0  0  0  0  0
   -6.9720   -3.3210   -2.7550 C   0  0  0  0  0  0  0  0  0  0  0  0
   -5.6390   -3.4770   -3.1110 C   0  0  0  0  0  0  0  0  0  0  0  0
   -5.1940   -2.8390   -4.2640 C   0  0  0  0  0  0  0  0  0  0  0  0
   -6.0850   -2.0780   -5.0070 C   0  0  0  0  0  0  0  0  0  0  0  0
   -7.3470   -1.9600   -4.6270 N   0  0  0  0  0  0  0  0  0  0  0  0
  -12.1450   -0.9640   -2.3390 O   0  0  0  0  0  0  0  0  0  0  0  0
  -18.7610   -1.8760   -2.7390 F   0  0  0  0  0  0  0  0  0  0  0  0
  -18.4550    0.3250   -2.2750 F   0  0  0  0  0  0  0  0  0  0  0  0
  -19.1950   -1.1300   -0.7370 F   0  0  0  0  0  0  0  0  0  0  0  0
  -10.0453   -2.0069   -4.3181 C   0  0  0  0  0  0  0  0  0  0  0  0
   -9.8029   -3.7797   -2.8149 O   0  0  0  0  0  0  0  0  0  0  0  0
  -10.7486   -2.9890   -5.0825 C   0  0  0  0  0  0  0  0  0  0  0  0
  -11.5634   -3.7027   -4.4281 O   0  0  0  0  0  0  0  0  0  0  0  0
  -10.7659   -2.9976   -6.3031 O   0  0  0  0  0  0  0  0  0  0  0  0
  -11.2634   -5.0189   -4.3076 C   0  0  0  0  0  0  0  0  0  0  0  0
   -9.9801   -5.2553   -3.8850 C   0  0  0  0  0  0  0  0  0  0  0  0
  1  2  2  0
  2  3  1  0
  2 16  1  0
  3  4  1  0
  3  6  2  0
  4  5  1  0
  6  7  1  0
  7 15  1  0
  7  8  1  0
 11 12  1  0
 12 28  1  0
 12 27  1  0
 12 26  1  0
 15 16  1  0
 15 25  2  0
 16 17  1  0
 17 18  1  0
 18 19  1  0
 18 29  1  0
 18 30  1  0
 29 31  1  0
 31 32  1  0
 31 33  2  0
 32 34  1  0
 30 35  1  0
 34 35  1  0
  8  9  2  0
  9 10  1  0
 10 11  2  0
 11 13  1  0
 13 14  2  0
 14  8  1  0
 19 20  2  0
 20 21  1  0
 21 22  2  0
 22 23  1  0
 23 24  2  0
 24 19  1  0
M  END

$$$$
No_195-gen_results_new/Mpro_new_generate_500/2024-01-19-21-58-56/
     RDKit          3D

 32 34  0  0  0  0  0  0  0  0999 V2000
   -9.1300   -2.9100    0.4520 O   0  0  0  0  0  0  0  0  0  0  0  0
  -10.2490   -2.6420    0.1800 C   0  0  0  0  0  0  0  0  0  0  0  0
  -11.3800   -3.0650    1.0860 C   0  0  0  0  0  0  0  0  0  0  0  0
  -11.2000   -3.8390    2.3880 C   0  0  0  0  0  0  0  0  0  0  0  0
  -10.9900   -5.0690    2.3420 N   0  0  0  0  0  0  0  0  0  0  0  0
  -12.7310   -2.7290    0.7330 N   0  0  0  0  0  0  0  0  0  0  0  0
  -12.9960   -1.9940   -0.4510 N   0  0  0  0  0  0  0  0  0  0  0  0
  -14.3580   -1.6940   -0.7530 C   0  0  0  0  0  0  0  0  0  0  0  0
  -15.0390   -0.7180   -0.0560 C   0  0  0  0  0  0  0  0  0  0  0  0
  -16.3510   -0.4690   -0.3980 C   0  0  0  0  0  0  0  0  0  0  0  0
  -16.9430   -1.2030   -1.4080 C   0  0  0  0  0  0  0  0  0  0  0  0
  -18.3840   -0.9560   -1.8060 C   0  0  0  0  0  0  0  0  0  0  0  0
  -16.2510   -2.1690   -2.1000 C   0  0  0  0  0  0  0  0  0  0  0  0
  -14.9490   -2.4160   -1.7590 C   0  0  0  0  0  0  0  0  0  0  0  0
  -11.9050   -1.5730   -1.3540 C   0  0  0  0  0  0  0  0  0  0  0  0
  -10.5280   -1.9050   -1.0240 N   0  0  0  0  0  0  0  0  0  0  0  0
   -9.4550   -1.4720   -1.9190 C   0  0  0  0  0  0  0  0  0  0  0  0
   -9.2820   -2.3940   -3.1270 C   0  0  0  0  0  0  0  0  0  0  0  0
   -7.8170   -2.5500   -3.5360 C   0  0  0  0  0  0  0  0  0  0  0  0
   -6.9720   -3.3210   -2.7550 C   0  0  0  0  0  0  0  0  0  0  0  0
   -5.6390   -3.4770   -3.1110 C   0  0  0  0  0  0  0  0  0  0  0  0
   -5.1940   -2.8390   -4.2640 C   0  0  0  0  0  0  0  0  0  0  0  0
   -6.0850   -2.0780   -5.0070 C   0  0  0  0  0  0  0  0  0  0  0  0
   -7.3470   -1.9600   -4.6270 N   0  0  0  0  0  0  0  0  0  0  0  0
  -12.1450   -0.9640   -2.3390 O   0  0  0  0  0  0  0  0  0  0  0  0
  -18.7610   -1.8760   -2.7390 F   0  0  0  0  0  0  0  0  0  0  0  0
  -18.4550    0.3250   -2.2750 F   0  0  0  0  0  0  0  0  0  0  0  0
  -19.1950   -1.1300   -0.7370 F   0  0  0  0  0  0  0  0  0  0  0  0
   -9.9592   -1.9070   -4.1913 F   0  0  0  0  0  0  0  0  0  0  0  0
   -9.8472   -3.7386   -2.9003 O   0  0  0  0  0  0  0  0  0  0  0  0
   -9.9096   -4.6783   -3.8962 C   0  0  0  0  0  0  0  0  0  0  0  0
  -10.5091   -5.6707   -3.3200 F   0  0  0  0  0  0  0  0  0  0  0  0
  1  2  2  0
  2  3  1  0
  2 16  1  0
  3  4  1  0
  3  6  2  0
  4  5  1  0
  6  7  1  0
  7 15  1  0
  7  8  1  0
 11 12  1  0
 12 28  1  0
 12 27  1  0
 12 26  1  0
 15 16  1  0
 15 25  2  0
 16 17  1  0
 17 18  1  0
 18 19  1  0
 18 29  1  0
 18 30  1  0
 30 31  1  0
 31 32  1  0
  8  9  2  0
  9 10  1  0
 10 11  2  0
 11 13  1  0
 13 14  2  0
 14  8  1  0
 19 20  2  0
 20 21  1  0
 21 22  2  0
 22 23  1  0
 23 24  2  0
 24 19  1  0
M  END

$$$$
No_196-gen_results_new/Mpro_new_generate_500/2024-01-19-21-58-56/
     RDKit          3D

 32 35  0  0  0  0  0  0  0  0999 V2000
   -9.1300   -2.9100    0.4520 O   0  0  0  0  0  0  0  0  0  0  0  0
  -10.2490   -2.6420    0.1800 C   0  0  0  0  0  0  0  0  0  0  0  0
  -11.3800   -3.0650    1.0860 C   0  0  0  0  0  0  0  0  0  0  0  0
  -11.2000   -3.8390    2.3880 C   0  0  0  0  0  0  0  0  0  0  0  0
  -10.9900   -5.0690    2.3420 N   0  0  0  0  0  0  0  0  0  0  0  0
  -12.7310   -2.7290    0.7330 N   0  0  0  0  0  0  0  0  0  0  0  0
  -12.9960   -1.9940   -0.4510 N   0  0  0  0  0  0  0  0  0  0  0  0
  -14.3580   -1.6940   -0.7530 C   0  0  0  0  0  0  0  0  0  0  0  0
  -15.0390   -0.7180   -0.0560 C   0  0  0  0  0  0  0  0  0  0  0  0
  -16.3510   -0.4690   -0.3980 C   0  0  0  0  0  0  0  0  0  0  0  0
  -16.9430   -1.2030   -1.4080 C   0  0  0  0  0  0  0  0  0  0  0  0
  -18.3840   -0.9560   -1.8060 C   0  0  0  0  0  0  0  0  0  0  0  0
  -16.2510   -2.1690   -2.1000 C   0  0  0  0  0  0  0  0  0  0  0  0
  -14.9490   -2.4160   -1.7590 C   0  0  0  0  0  0  0  0  0  0  0  0
  -11.9050   -1.5730   -1.3540 C   0  0  0  0  0  0  0  0  0  0  0  0
  -10.5280   -1.9050   -1.0240 N   0  0  0  0  0  0  0  0  0  0  0  0
   -9.4550   -1.4720   -1.9190 C   0  0  0  0  0  0  0  0  0  0  0  0
   -9.2820   -2.3940   -3.1270 C   0  0  0  0  0  0  0  0  0  0  0  0
   -7.8170   -2.5500   -3.5360 C   0  0  0  0  0  0  0  0  0  0  0  0
   -6.9720   -3.3210   -2.7550 C   0  0  0  0  0  0  0  0  0  0  0  0
   -5.6390   -3.4770   -3.1110 C   0  0  0  0  0  0  0  0  0  0  0  0
   -5.1940   -2.8390   -4.2640 C   0  0  0  0  0  0  0  0  0  0  0  0
   -6.0850   -2.0780   -5.0070 C   0  0  0  0  0  0  0  0  0  0  0  0
   -7.3470   -1.9600   -4.6270 N   0  0  0  0  0  0  0  0  0  0  0  0
  -12.1450   -0.9640   -2.3390 O   0  0  0  0  0  0  0  0  0  0  0  0
  -18.7610   -1.8760   -2.7390 F   0  0  0  0  0  0  0  0  0  0  0  0
  -18.4550    0.3250   -2.2750 F   0  0  0  0  0  0  0  0  0  0  0  0
  -19.1950   -1.1300   -0.7370 F   0  0  0  0  0  0  0  0  0  0  0  0
  -10.1467   -3.0903   -3.8357 C   0  0  0  0  0  0  0  0  0  0  0  0
  -10.1748   -2.6832   -3.5186 O   0  0  0  0  0  0  0  0  0  0  0  0
  -10.7471   -2.9982   -4.5745 C   0  0  0  0  0  0  0  0  0  0  0  0
  -10.5503   -3.6142   -3.7225 C   0  0  0  0  0  0  0  0  0  0  0  0
  1  2  2  0
  2  3  1  0
  2 16  1  0
  3  4  1  0
  3  6  2  0
  4  5  1  0
  6  7  1  0
  7 15  1  0
  7  8  1  0
 11 12  1  0
 12 28  1  0
 12 27  1  0
 12 26  1  0
 15 16  1  0
 15 25  2  0
 16 17  1  0
 17 18  1  0
 18 19  1  0
 18 29  1  0
 29 30  1  0
 29 31  1  0
 30 32  1  0
 31 32  2  0
  8  9  2  0
  9 10  1  0
 10 11  2  0
 11 13  1  0
 13 14  2  0
 14  8  1  0
 19 20  2  0
 20 21  1  0
 21 22  2  0
 22 23  1  0
 23 24  2  0
 24 19  1  0
M  END

$$$$
No_197-gen_results_new/Mpro_new_generate_500/2024-01-19-21-58-56/
     RDKit          3D

 33 35  0  0  0  0  0  0  0  0999 V2000
   -9.1300   -2.9100    0.4520 O   0  0  0  0  0  0  0  0  0  0  0  0
  -10.2490   -2.6420    0.1800 C   0  0  0  0  0  0  0  0  0  0  0  0
  -11.3800   -3.0650    1.0860 C   0  0  0  0  0  0  0  0  0  0  0  0
  -11.2000   -3.8390    2.3880 C   0  0  0  0  0  0  0  0  0  0  0  0
  -10.9900   -5.0690    2.3420 N   0  0  0  0  0  0  0  0  0  0  0  0
  -12.7310   -2.7290    0.7330 N   0  0  0  0  0  0  0  0  0  0  0  0
  -12.9960   -1.9940   -0.4510 N   0  0  0  0  0  0  0  0  0  0  0  0
  -14.3580   -1.6940   -0.7530 C   0  0  0  0  0  0  0  0  0  0  0  0
  -15.0390   -0.7180   -0.0560 C   0  0  0  0  0  0  0  0  0  0  0  0
  -16.3510   -0.4690   -0.3980 C   0  0  0  0  0  0  0  0  0  0  0  0
  -16.9430   -1.2030   -1.4080 C   0  0  0  0  0  0  0  0  0  0  0  0
  -18.3840   -0.9560   -1.8060 C   0  0  0  0  0  0  0  0  0  0  0  0
  -16.2510   -2.1690   -2.1000 C   0  0  0  0  0  0  0  0  0  0  0  0
  -14.9490   -2.4160   -1.7590 C   0  0  0  0  0  0  0  0  0  0  0  0
  -11.9050   -1.5730   -1.3540 C   0  0  0  0  0  0  0  0  0  0  0  0
  -10.5280   -1.9050   -1.0240 N   0  0  0  0  0  0  0  0  0  0  0  0
   -9.4550   -1.4720   -1.9190 C   0  0  0  0  0  0  0  0  0  0  0  0
   -9.2820   -2.3940   -3.1270 C   0  0  0  0  0  0  0  0  0  0  0  0
   -7.8170   -2.5500   -3.5360 C   0  0  0  0  0  0  0  0  0  0  0  0
   -6.9720   -3.3210   -2.7550 C   0  0  0  0  0  0  0  0  0  0  0  0
   -5.6390   -3.4770   -3.1110 C   0  0  0  0  0  0  0  0  0  0  0  0
   -5.1940   -2.8390   -4.2640 C   0  0  0  0  0  0  0  0  0  0  0  0
   -6.0850   -2.0780   -5.0070 C   0  0  0  0  0  0  0  0  0  0  0  0
   -7.3470   -1.9600   -4.6270 N   0  0  0  0  0  0  0  0  0  0  0  0
  -12.1450   -0.9640   -2.3390 O   0  0  0  0  0  0  0  0  0  0  0  0
  -18.7610   -1.8760   -2.7390 F   0  0  0  0  0  0  0  0  0  0  0  0
  -18.4550    0.3250   -2.2750 F   0  0  0  0  0  0  0  0  0  0  0  0
  -19.1950   -1.1300   -0.7370 F   0  0  0  0  0  0  0  0  0  0  0  0
  -10.0899   -3.0088   -3.7244 O   0  0  0  0  0  0  0  0  0  0  0  0
  -16.8667   -3.4153   -3.2563 S   0  0  0  0  0  0  0  0  0  0  0  0
  -17.9323   -4.3008   -2.5845 C   0  0  0  0  0  0  0  0  0  0  0  0
  -17.3494   -2.4621   -4.3809 O   0  0  0  0  0  0  0  0  0  0  0  0
  -15.8403   -4.3840   -3.6052 O   0  0  0  0  0  0  0  0  0  0  0  0
  1  2  2  0
  2  3  1  0
  2 16  1  0
  3  4  1  0
  3  6  2  0
  4  5  1  0
  6  7  1  0
  7 15  1  0
  7  8  1  0
 11 12  1  0
 12 28  1  0
 12 27  1  0
 12 26  1  0
 15 16  1  0
 15 25  2  0
 16 17  1  0
 17 18  1  0
 18 19  1  0
 18 29  2  0
 13 30  1  0
 30 31  1  0
 30 32  2  0
 30 33  2  0
  8  9  2  0
  9 10  1  0
 10 11  2  0
 11 13  1  0
 13 14  2  0
 14  8  1  0
 19 20  2  0
 20 21  1  0
 21 22  2  0
 22 23  1  0
 23 24  2  0
 24 19  1  0
M  END

$$$$
No_198-gen_results_new/Mpro_new_generate_500/2024-01-19-21-58-56/
     RDKit          3D

 34 37  0  0  0  0  0  0  0  0999 V2000
   -9.1300   -2.9100    0.4520 O   0  0  0  0  0  0  0  0  0  0  0  0
  -10.2490   -2.6420    0.1800 C   0  0  0  0  0  0  0  0  0  0  0  0
  -11.3800   -3.0650    1.0860 C   0  0  0  0  0  0  0  0  0  0  0  0
  -11.2000   -3.8390    2.3880 C   0  0  0  0  0  0  0  0  0  0  0  0
  -10.9900   -5.0690    2.3420 N   0  0  0  0  0  0  0  0  0  0  0  0
  -12.7310   -2.7290    0.7330 N   0  0  0  0  0  0  0  0  0  0  0  0
  -12.9960   -1.9940   -0.4510 N   0  0  0  0  0  0  0  0  0  0  0  0
  -14.3580   -1.6940   -0.7530 C   0  0  0  0  0  0  0  0  0  0  0  0
  -15.0390   -0.7180   -0.0560 C   0  0  0  0  0  0  0  0  0  0  0  0
  -16.3510   -0.4690   -0.3980 C   0  0  0  0  0  0  0  0  0  0  0  0
  -16.9430   -1.2030   -1.4080 C   0  0  0  0  0  0  0  0  0  0  0  0
  -18.3840   -0.9560   -1.8060 C   0  0  0  0  0  0  0  0  0  0  0  0
  -16.2510   -2.1690   -2.1000 C   0  0  0  0  0  0  0  0  0  0  0  0
  -14.9490   -2.4160   -1.7590 C   0  0  0  0  0  0  0  0  0  0  0  0
  -11.9050   -1.5730   -1.3540 C   0  0  0  0  0  0  0  0  0  0  0  0
  -10.5280   -1.9050   -1.0240 N   0  0  0  0  0  0  0  0  0  0  0  0
   -9.4550   -1.4720   -1.9190 C   0  0  0  0  0  0  0  0  0  0  0  0
   -9.2820   -2.3940   -3.1270 C   0  0  0  0  0  0  0  0  0  0  0  0
   -7.8170   -2.5500   -3.5360 C   0  0  0  0  0  0  0  0  0  0  0  0
   -6.9720   -3.3210   -2.7550 C   0  0  0  0  0  0  0  0  0  0  0  0
   -5.6390   -3.4770   -3.1110 C   0  0  0  0  0  0  0  0  0  0  0  0
   -5.1940   -2.8390   -4.2640 C   0  0  0  0  0  0  0  0  0  0  0  0
   -6.0850   -2.0780   -5.0070 C   0  0  0  0  0  0  0  0  0  0  0  0
   -7.3470   -1.9600   -4.6270 N   0  0  0  0  0  0  0  0  0  0  0  0
  -12.1450   -0.9640   -2.3390 O   0  0  0  0  0  0  0  0  0  0  0  0
  -18.7610   -1.8760   -2.7390 F   0  0  0  0  0  0  0  0  0  0  0  0
  -18.4550    0.3250   -2.2750 F   0  0  0  0  0  0  0  0  0  0  0  0
  -19.1950   -1.1300   -0.7370 F   0  0  0  0  0  0  0  0  0  0  0  0
  -10.1467   -3.0903   -3.8357 C   0  0  0  0  0  0  0  0  0  0  0  0
  -10.1748   -2.6832   -3.5186 O   0  0  0  0  0  0  0  0  0  0  0  0
  -10.7471   -2.9982   -4.5745 C   0  0  0  0  0  0  0  0  0  0  0  0
  -10.5502   -3.6143   -3.7224 C   0  0  0  0  0  0  0  0  0  0  0  0
  -10.4674   -1.8279   -4.5161 C   0  0  0  0  0  0  0  0  0  0  0  0
  -11.0791   -2.7240   -2.8526 C   0  0  0  0  0  0  0  0  0  0  0  0
  1  2  2  0
  2  3  1  0
  2 16  1  0
  3  4  1  0
  3  6  2  0
  4  5  1  0
  6  7  1  0
  7 15  1  0
  7  8  1  0
 11 12  1  0
 12 28  1  0
 12 27  1  0
 12 26  1  0
 15 16  1  0
 15 25  2  0
 16 17  1  0
 17 18  1  0
 18 19  1  0
 18 29  1  0
 29 30  1  0
 29 31  1  0
 29 32  1  0
 31 33  1  0
 30 34  1  0
 32 34  2  0
  8  9  2  0
  9 10  1  0
 10 11  2  0
 11 13  1  0
 13 14  2  0
 14  8  1  0
 19 20  2  0
 20 21  1  0
 21 22  2  0
 22 23  1  0
 23 24  2  0
 24 19  1  0
M  END

$$$$
No_199-gen_results_new/Mpro_new_generate_500/2024-01-19-21-58-56/
     RDKit          3D

 33 35  0  0  0  0  0  0  0  0999 V2000
   -9.1300   -2.9100    0.4520 O   0  0  0  0  0  0  0  0  0  0  0  0
  -10.2490   -2.6420    0.1800 C   0  0  0  0  0  0  0  0  0  0  0  0
  -11.3800   -3.0650    1.0860 C   0  0  0  0  0  0  0  0  0  0  0  0
  -11.2000   -3.8390    2.3880 C   0  0  0  0  0  0  0  0  0  0  0  0
  -10.9900   -5.0690    2.3420 N   0  0  0  0  0  0  0  0  0  0  0  0
  -12.7310   -2.7290    0.7330 N   0  0  0  0  0  0  0  0  0  0  0  0
  -12.9960   -1.9940   -0.4510 N   0  0  0  0  0  0  0  0  0  0  0  0
  -14.3580   -1.6940   -0.7530 C   0  0  0  0  0  0  0  0  0  0  0  0
  -15.0390   -0.7180   -0.0560 C   0  0  0  0  0  0  0  0  0  0  0  0
  -16.3510   -0.4690   -0.3980 C   0  0  0  0  0  0  0  0  0  0  0  0
  -16.9430   -1.2030   -1.4080 C   0  0  0  0  0  0  0  0  0  0  0  0
  -18.3840   -0.9560   -1.8060 C   0  0  0  0  0  0  0  0  0  0  0  0
  -16.2510   -2.1690   -2.1000 C   0  0  0  0  0  0  0  0  0  0  0  0
  -14.9490   -2.4160   -1.7590 C   0  0  0  0  0  0  0  0  0  0  0  0
  -11.9050   -1.5730   -1.3540 C   0  0  0  0  0  0  0  0  0  0  0  0
  -10.5280   -1.9050   -1.0240 N   0  0  0  0  0  0  0  0  0  0  0  0
   -9.4550   -1.4720   -1.9190 C   0  0  0  0  0  0  0  0  0  0  0  0
   -9.2820   -2.3940   -3.1270 C   0  0  0  0  0  0  0  0  0  0  0  0
   -7.8170   -2.5500   -3.5360 C   0  0  0  0  0  0  0  0  0  0  0  0
   -6.9720   -3.3210   -2.7550 C   0  0  0  0  0  0  0  0  0  0  0  0
   -5.6390   -3.4770   -3.1110 C   0  0  0  0  0  0  0  0  0  0  0  0
   -5.1940   -2.8390   -4.2640 C   0  0  0  0  0  0  0  0  0  0  0  0
   -6.0850   -2.0780   -5.0070 C   0  0  0  0  0  0  0  0  0  0  0  0
   -7.3470   -1.9600   -4.6270 N   0  0  0  0  0  0  0  0  0  0  0  0
  -12.1450   -0.9640   -2.3390 O   0  0  0  0  0  0  0  0  0  0  0  0
  -18.7610   -1.8760   -2.7390 F   0  0  0  0  0  0  0  0  0  0  0  0
  -18.4550    0.3250   -2.2750 F   0  0  0  0  0  0  0  0  0  0  0  0
  -19.1950   -1.1300   -0.7370 F   0  0  0  0  0  0  0  0  0  0  0  0
   -9.6560   -3.6380   -2.7665 F   0  0  0  0  0  0  0  0  0  0  0  0
  -10.1638   -2.1170   -4.2416 C   0  0  0  0  0  0  0  0  0  0  0  0
  -11.0227   -3.1430   -4.7875 C   0  0  0  0  0  0  0  0  0  0  0  0
  -10.0929   -1.0019   -4.8481 O   0  0  0  0  0  0  0  0  0  0  0  0
  -16.7709   -3.0004   -3.1037 F   0  0  0  0  0  0  0  0  0  0  0  0
  1  2  2  0
  2  3  1  0
  2 16  1  0
  3  4  1  0
  3  6  2  0
  4  5  1  0
  6  7  1  0
  7 15  1  0
  7  8  1  0
 11 12  1  0
 12 28  1  0
 12 27  1  0
 12 26  1  0
 15 16  1  0
 15 25  2  0
 16 17  1  0
 17 18  1  0
 18 19  1  0
 18 29  1  0
 18 30  1  0
 30 31  1  0
 30 32  2  0
 13 33  1  0
  8  9  2  0
  9 10  1  0
 10 11  2  0
 11 13  1  0
 13 14  2  0
 14  8  1  0
 19 20  2  0
 20 21  1  0
 21 22  2  0
 22 23  1  0
 23 24  2  0
 24 19  1  0
M  END

$$$$
No_200-gen_results_new/Mpro_new_generate_500/2024-01-19-21-58-56/
     RDKit          3D

 35 38  0  0  0  0  0  0  0  0999 V2000
   -9.1300   -2.9100    0.4520 O   0  0  0  0  0  0  0  0  0  0  0  0
  -10.2490   -2.6420    0.1800 C   0  0  0  0  0  0  0  0  0  0  0  0
  -11.3800   -3.0650    1.0860 C   0  0  0  0  0  0  0  0  0  0  0  0
  -11.2000   -3.8390    2.3880 C   0  0  0  0  0  0  0  0  0  0  0  0
  -10.9900   -5.0690    2.3420 N   0  0  0  0  0  0  0  0  0  0  0  0
  -12.7310   -2.7290    0.7330 N   0  0  0  0  0  0  0  0  0  0  0  0
  -12.9960   -1.9940   -0.4510 N   0  0  0  0  0  0  0  0  0  0  0  0
  -14.3580   -1.6940   -0.7530 C   0  0  0  0  0  0  0  0  0  0  0  0
  -15.0390   -0.7180   -0.0560 C   0  0  0  0  0  0  0  0  0  0  0  0
  -16.3510   -0.4690   -0.3980 C   0  0  0  0  0  0  0  0  0  0  0  0
  -16.9430   -1.2030   -1.4080 C   0  0  0  0  0  0  0  0  0  0  0  0
  -18.3840   -0.9560   -1.8060 C   0  0  0  0  0  0  0  0  0  0  0  0
  -16.2510   -2.1690   -2.1000 C   0  0  0  0  0  0  0  0  0  0  0  0
  -14.9490   -2.4160   -1.7590 C   0  0  0  0  0  0  0  0  0  0  0  0
  -11.9050   -1.5730   -1.3540 C   0  0  0  0  0  0  0  0  0  0  0  0
  -10.5280   -1.9050   -1.0240 N   0  0  0  0  0  0  0  0  0  0  0  0
   -9.4550   -1.4720   -1.9190 C   0  0  0  0  0  0  0  0  0  0  0  0
   -9.2820   -2.3940   -3.1270 C   0  0  0  0  0  0  0  0  0  0  0  0
   -7.8170   -2.5500   -3.5360 C   0  0  0  0  0  0  0  0  0  0  0  0
   -6.9720   -3.3210   -2.7550 C   0  0  0  0  0  0  0  0  0  0  0  0
   -5.6390   -3.4770   -3.1110 C   0  0  0  0  0  0  0  0  0  0  0  0
   -5.1940   -2.8390   -4.2640 C   0  0  0  0  0  0  0  0  0  0  0  0
   -6.0850   -2.0780   -5.0070 C   0  0  0  0  0  0  0  0  0  0  0  0
   -7.3470   -1.9600   -4.6270 N   0  0  0  0  0  0  0  0  0  0  0  0
  -12.1450   -0.9640   -2.3390 O   0  0  0  0  0  0  0  0  0  0  0  0
  -18.7610   -1.8760   -2.7390 F   0  0  0  0  0  0  0  0  0  0  0  0
  -18.4550    0.3250   -2.2750 F   0  0  0  0  0  0  0  0  0  0  0  0
  -19.1950   -1.1300   -0.7370 F   0  0  0  0  0  0  0  0  0  0  0  0
   -9.7920   -3.7475   -2.8656 C   0  0  0  0  0  0  0  0  0  0  0  0
  -10.0268   -1.9037   -4.2201 F   0  0  0  0  0  0  0  0  0  0  0  0
   -9.2446   -4.8373   -2.2763 C   0  0  0  0  0  0  0  0  0  0  0  0
  -11.1100   -4.2039   -3.4664 C   0  0  0  0  0  0  0  0  0  0  0  0
  -11.8586   -4.7812   -2.6677 C   0  0  0  0  0  0  0  0  0  0  0  0
  -11.6165   -5.7985   -1.8097 C   0  0  0  0  0  0  0  0  0  0  0  0
  -10.1471   -5.8047   -1.5365 C   0  0  0  0  0  0  0  0  0  0  0  0
  1  2  2  0
  2  3  1  0
  2 16  1  0
  3  4  1  0
  3  6  2  0
  4  5  1  0
  6  7  1  0
  7 15  1  0
  7  8  1  0
 11 12  1  0
 12 28  1  0
 12 27  1  0
 12 26  1  0
 15 16  1  0
 15 25  2  0
 16 17  1  0
 17 18  1  0
 18 19  1  0
 18 29  1  0
 18 30  1  0
  8  9  2  0
  9 10  1  0
 10 11  2  0
 11 13  1  0
 13 14  2  0
 14  8  1  0
 29 31  2  0
 31 35  1  0
 35 34  2  0
 34 33  1  0
 33 32  2  0
 32 29  1  0
 19 20  2  0
 20 21  1  0
 21 22  2  0
 22 23  1  0
 23 24  2  0
 24 19  1  0
M  END

$$$$
No_201-gen_results_new/Mpro_new_generate_500/2024-01-19-21-58-56/
     RDKit          3D

 35 37  0  0  0  0  0  0  0  0999 V2000
   -9.1300   -2.9100    0.4520 O   0  0  0  0  0  0  0  0  0  0  0  0
  -10.2490   -2.6420    0.1800 C   0  0  0  0  0  0  0  0  0  0  0  0
  -11.3800   -3.0650    1.0860 C   0  0  0  0  0  0  0  0  0  0  0  0
  -11.2000   -3.8390    2.3880 C   0  0  0  0  0  0  0  0  0  0  0  0
  -10.9900   -5.0690    2.3420 N   0  0  0  0  0  0  0  0  0  0  0  0
  -12.7310   -2.7290    0.7330 N   0  0  0  0  0  0  0  0  0  0  0  0
  -12.9960   -1.9940   -0.4510 N   0  0  0  0  0  0  0  0  0  0  0  0
  -14.3580   -1.6940   -0.7530 C   0  0  0  0  0  0  0  0  0  0  0  0
  -15.0390   -0.7180   -0.0560 C   0  0  0  0  0  0  0  0  0  0  0  0
  -16.3510   -0.4690   -0.3980 C   0  0  0  0  0  0  0  0  0  0  0  0
  -16.9430   -1.2030   -1.4080 C   0  0  0  0  0  0  0  0  0  0  0  0
  -18.3840   -0.9560   -1.8060 C   0  0  0  0  0  0  0  0  0  0  0  0
  -16.2510   -2.1690   -2.1000 C   0  0  0  0  0  0  0  0  0  0  0  0
  -14.9490   -2.4160   -1.7590 C   0  0  0  0  0  0  0  0  0  0  0  0
  -11.9050   -1.5730   -1.3540 C   0  0  0  0  0  0  0  0  0  0  0  0
  -10.5280   -1.9050   -1.0240 N   0  0  0  0  0  0  0  0  0  0  0  0
   -9.4550   -1.4720   -1.9190 C   0  0  0  0  0  0  0  0  0  0  0  0
   -9.2820   -2.3940   -3.1270 C   0  0  0  0  0  0  0  0  0  0  0  0
   -7.8170   -2.5500   -3.5360 C   0  0  0  0  0  0  0  0  0  0  0  0
   -6.9720   -3.3210   -2.7550 C   0  0  0  0  0  0  0  0  0  0  0  0
   -5.6390   -3.4770   -3.1110 C   0  0  0  0  0  0  0  0  0  0  0  0
   -5.1940   -2.8390   -4.2640 C   0  0  0  0  0  0  0  0  0  0  0  0
   -6.0850   -2.0780   -5.0070 C   0  0  0  0  0  0  0  0  0  0  0  0
   -7.3470   -1.9600   -4.6270 N   0  0  0  0  0  0  0  0  0  0  0  0
  -12.1450   -0.9640   -2.3390 O   0  0  0  0  0  0  0  0  0  0  0  0
  -18.7610   -1.8760   -2.7390 F   0  0  0  0  0  0  0  0  0  0  0  0
  -18.4550    0.3250   -2.2750 F   0  0  0  0  0  0  0  0  0  0  0  0
  -19.1950   -1.1300   -0.7370 F   0  0  0  0  0  0  0  0  0  0  0  0
   -9.7920   -3.7475   -2.8656 C   0  0  0  0  0  0  0  0  0  0  0  0
  -10.0717   -1.8029   -4.3549 C   0  0  0  0  0  0  0  0  0  0  0  0
  -10.0419   -4.6597   -4.1091 C   0  0  0  0  0  0  0  0  0  0  0  0
  -10.0175   -5.8011   -3.9541 C   0  0  0  0  0  0  0  0  0  0  0  0
   -8.6167   -6.3941   -4.1902 C   0  0  0  0  0  0  0  0  0  0  0  0
   -7.9712   -6.5268   -5.3599 C   0  0  0  0  0  0  0  0  0  0  0  0
   -6.7927   -7.2416   -5.3809 N   0  0  0  0  0  0  0  0  0  0  0  0
  1  2  2  0
  2  3  1  0
  2 16  1  0
  3  4  1  0
  3  6  2  0
  4  5  1  0
  6  7  1  0
  7 15  1  0
  7  8  1  0
 11 12  1  0
 12 28  1  0
 12 27  1  0
 12 26  1  0
 15 16  1  0
 15 25  2  0
 16 17  1  0
 17 18  1  0
 18 19  1  0
 18 29  1  0
 18 30  1  0
 29 31  1  0
 31 32  1  0
 32 33  1  0
 33 34  2  3
 34 35  1  0
  8  9  2  0
  9 10  1  0
 10 11  2  0
 11 13  1  0
 13 14  2  0
 14  8  1  0
 19 20  2  0
 20 21  1  0
 21 22  2  0
 22 23  1  0
 23 24  2  0
 24 19  1  0
M  END

$$$$
No_202-gen_results_new/Mpro_new_generate_500/2024-01-19-21-58-56/
     RDKit          3D

 33 36  0  0  0  0  0  0  0  0999 V2000
   -9.1300   -2.9100    0.4520 O   0  0  0  0  0  0  0  0  0  0  0  0
  -10.2490   -2.6420    0.1800 C   0  0  0  0  0  0  0  0  0  0  0  0
  -11.3800   -3.0650    1.0860 C   0  0  0  0  0  0  0  0  0  0  0  0
  -11.2000   -3.8390    2.3880 C   0  0  0  0  0  0  0  0  0  0  0  0
  -10.9900   -5.0690    2.3420 N   0  0  0  0  0  0  0  0  0  0  0  0
  -12.7310   -2.7290    0.7330 N   0  0  0  0  0  0  0  0  0  0  0  0
  -12.9960   -1.9940   -0.4510 N   0  0  0  0  0  0  0  0  0  0  0  0
  -14.3580   -1.6940   -0.7530 C   0  0  0  0  0  0  0  0  0  0  0  0
  -15.0390   -0.7180   -0.0560 C   0  0  0  0  0  0  0  0  0  0  0  0
  -16.3510   -0.4690   -0.3980 C   0  0  0  0  0  0  0  0  0  0  0  0
  -16.9430   -1.2030   -1.4080 C   0  0  0  0  0  0  0  0  0  0  0  0
  -18.3840   -0.9560   -1.8060 C   0  0  0  0  0  0  0  0  0  0  0  0
  -16.2510   -2.1690   -2.1000 C   0  0  0  0  0  0  0  0  0  0  0  0
  -14.9490   -2.4160   -1.7590 C   0  0  0  0  0  0  0  0  0  0  0  0
  -11.9050   -1.5730   -1.3540 C   0  0  0  0  0  0  0  0  0  0  0  0
  -10.5280   -1.9050   -1.0240 N   0  0  0  0  0  0  0  0  0  0  0  0
   -9.4550   -1.4720   -1.9190 C   0  0  0  0  0  0  0  0  0  0  0  0
   -9.2820   -2.3940   -3.1270 C   0  0  0  0  0  0  0  0  0  0  0  0
   -7.8170   -2.5500   -3.5360 C   0  0  0  0  0  0  0  0  0  0  0  0
   -6.9720   -3.3210   -2.7550 C   0  0  0  0  0  0  0  0  0  0  0  0
   -5.6390   -3.4770   -3.1110 C   0  0  0  0  0  0  0  0  0  0  0  0
   -5.1940   -2.8390   -4.2640 C   0  0  0  0  0  0  0  0  0  0  0  0
   -6.0850   -2.0780   -5.0070 C   0  0  0  0  0  0  0  0  0  0  0  0
   -7.3470   -1.9600   -4.6270 N   0  0  0  0  0  0  0  0  0  0  0  0
  -12.1450   -0.9640   -2.3390 O   0  0  0  0  0  0  0  0  0  0  0  0
  -18.7610   -1.8760   -2.7390 F   0  0  0  0  0  0  0  0  0  0  0  0
  -18.4550    0.3250   -2.2750 F   0  0  0  0  0  0  0  0  0  0  0  0
  -19.1950   -1.1300   -0.7370 F   0  0  0  0  0  0  0  0  0  0  0  0
  -10.0453   -2.0069   -4.3181 C   0  0  0  0  0  0  0  0  0  0  0  0
   -9.8476   -3.8948   -2.8015 C   0  0  0  0  0  0  0  0  0  0  0  0
  -10.9871   -4.2370   -3.4678 C   0  0  0  0  0  0  0  0  0  0  0  0
  -11.0932   -2.9485   -4.4299 C   0  0  0  0  0  0  0  0  0  0  0  0
  -10.0042   -1.0367   -5.0570 F   0  0  0  0  0  0  0  0  0  0  0  0
  1  2  2  0
  2  3  1  0
  2 16  1  0
  3  4  1  0
  3  6  2  0
  4  5  1  0
  6  7  1  0
  7 15  1  0
  7  8  1  0
 11 12  1  0
 12 28  1  0
 12 27  1  0
 12 26  1  0
 15 16  1  0
 15 25  2  0
 16 17  1  0
 17 18  1  0
 18 19  1  0
 18 29  1  0
 18 30  1  0
 30 31  1  0
 29 32  1  0
 31 32  2  0
 29 33  1  0
  8  9  2  0
  9 10  1  0
 10 11  2  0
 11 13  1  0
 13 14  2  0
 14  8  1  0
 19 20  2  0
 20 21  1  0
 21 22  2  0
 22 23  1  0
 23 24  2  0
 24 19  1  0
M  END

$$$$
No_203-gen_results_new/Mpro_new_generate_500/2024-01-19-21-58-56/
     RDKit          3D

 32 34  0  0  0  0  0  0  0  0999 V2000
   -9.1300   -2.9100    0.4520 O   0  0  0  0  0  0  0  0  0  0  0  0
  -10.2490   -2.6420    0.1800 C   0  0  0  0  0  0  0  0  0  0  0  0
  -11.3800   -3.0650    1.0860 C   0  0  0  0  0  0  0  0  0  0  0  0
  -11.2000   -3.8390    2.3880 C   0  0  0  0  0  0  0  0  0  0  0  0
  -10.9900   -5.0690    2.3420 N   0  0  0  0  0  0  0  0  0  0  0  0
  -12.7310   -2.7290    0.7330 N   0  0  0  0  0  0  0  0  0  0  0  0
  -12.9960   -1.9940   -0.4510 N   0  0  0  0  0  0  0  0  0  0  0  0
  -14.3580   -1.6940   -0.7530 C   0  0  0  0  0  0  0  0  0  0  0  0
  -15.0390   -0.7180   -0.0560 C   0  0  0  0  0  0  0  0  0  0  0  0
  -16.3510   -0.4690   -0.3980 C   0  0  0  0  0  0  0  0  0  0  0  0
  -16.9430   -1.2030   -1.4080 C   0  0  0  0  0  0  0  0  0  0  0  0
  -18.3840   -0.9560   -1.8060 C   0  0  0  0  0  0  0  0  0  0  0  0
  -16.2510   -2.1690   -2.1000 C   0  0  0  0  0  0  0  0  0  0  0  0
  -14.9490   -2.4160   -1.7590 C   0  0  0  0  0  0  0  0  0  0  0  0
  -11.9050   -1.5730   -1.3540 C   0  0  0  0  0  0  0  0  0  0  0  0
  -10.5280   -1.9050   -1.0240 N   0  0  0  0  0  0  0  0  0  0  0  0
   -9.4550   -1.4720   -1.9190 C   0  0  0  0  0  0  0  0  0  0  0  0
   -9.2820   -2.3940   -3.1270 C   0  0  0  0  0  0  0  0  0  0  0  0
   -7.8170   -2.5500   -3.5360 C   0  0  0  0  0  0  0  0  0  0  0  0
   -6.9720   -3.3210   -2.7550 C   0  0  0  0  0  0  0  0  0  0  0  0
   -5.6390   -3.4770   -3.1110 C   0  0  0  0  0  0  0  0  0  0  0  0
   -5.1940   -2.8390   -4.2640 C   0  0  0  0  0  0  0  0  0  0  0  0
   -6.0850   -2.0780   -5.0070 C   0  0  0  0  0  0  0  0  0  0  0  0
   -7.3470   -1.9600   -4.6270 N   0  0  0  0  0  0  0  0  0  0  0  0
  -12.1450   -0.9640   -2.3390 O   0  0  0  0  0  0  0  0  0  0  0  0
  -18.7610   -1.8760   -2.7390 F   0  0  0  0  0  0  0  0  0  0  0  0
  -18.4550    0.3250   -2.2750 F   0  0  0  0  0  0  0  0  0  0  0  0
  -19.1950   -1.1300   -0.7370 F   0  0  0  0  0  0  0  0  0  0  0  0
   -9.7920   -3.7475   -2.8656 C   0  0  0  0  0  0  0  0  0  0  0  0
  -10.0268   -1.9037   -4.2201 F   0  0  0  0  0  0  0  0  0  0  0  0
  -10.9765   -3.9160   -3.4101 O   0  0  0  0  0  0  0  0  0  0  0  0
   -9.5504   -4.8281   -2.0071 C   0  0  0  0  0  0  0  0  0  0  0  0
  1  2  2  0
  2  3  1  0
  2 16  1  0
  3  4  1  0
  3  6  2  0
  4  5  1  0
  6  7  1  0
  7 15  1  0
  7  8  1  0
 11 12  1  0
 12 28  1  0
 12 27  1  0
 12 26  1  0
 15 16  1  0
 15 25  2  0
 16 17  1  0
 17 18  1  0
 18 19  1  0
 18 29  1  0
 18 30  1  0
 29 31  2  0
 29 32  1  0
  8  9  2  0
  9 10  1  0
 10 11  2  0
 11 13  1  0
 13 14  2  0
 14  8  1  0
 19 20  2  0
 20 21  1  0
 21 22  2  0
 22 23  1  0
 23 24  2  0
 24 19  1  0
M  END

$$$$
No_204-gen_results_new/Mpro_new_generate_500/2024-01-19-21-58-56/
     RDKit          3D

 34 36  0  0  0  0  0  0  0  0999 V2000
   -9.1300   -2.9100    0.4520 O   0  0  0  0  0  0  0  0  0  0  0  0
  -10.2490   -2.6420    0.1800 C   0  0  0  0  0  0  0  0  0  0  0  0
  -11.3800   -3.0650    1.0860 C   0  0  0  0  0  0  0  0  0  0  0  0
  -11.2000   -3.8390    2.3880 C   0  0  0  0  0  0  0  0  0  0  0  0
  -10.9900   -5.0690    2.3420 N   0  0  0  0  0  0  0  0  0  0  0  0
  -12.7310   -2.7290    0.7330 N   0  0  0  0  0  0  0  0  0  0  0  0
  -12.9960   -1.9940   -0.4510 N   0  0  0  0  0  0  0  0  0  0  0  0
  -14.3580   -1.6940   -0.7530 C   0  0  0  0  0  0  0  0  0  0  0  0
  -15.0390   -0.7180   -0.0560 C   0  0  0  0  0  0  0  0  0  0  0  0
  -16.3510   -0.4690   -0.3980 C   0  0  0  0  0  0  0  0  0  0  0  0
  -16.9430   -1.2030   -1.4080 C   0  0  0  0  0  0  0  0  0  0  0  0
  -18.3840   -0.9560   -1.8060 C   0  0  0  0  0  0  0  0  0  0  0  0
  -16.2510   -2.1690   -2.1000 C   0  0  0  0  0  0  0  0  0  0  0  0
  -14.9490   -2.4160   -1.7590 C   0  0  0  0  0  0  0  0  0  0  0  0
  -11.9050   -1.5730   -1.3540 C   0  0  0  0  0  0  0  0  0  0  0  0
  -10.5280   -1.9050   -1.0240 N   0  0  0  0  0  0  0  0  0  0  0  0
   -9.4550   -1.4720   -1.9190 C   0  0  0  0  0  0  0  0  0  0  0  0
   -9.2820   -2.3940   -3.1270 C   0  0  0  0  0  0  0  0  0  0  0  0
   -7.8170   -2.5500   -3.5360 C   0  0  0  0  0  0  0  0  0  0  0  0
   -6.9720   -3.3210   -2.7550 C   0  0  0  0  0  0  0  0  0  0  0  0
   -5.6390   -3.4770   -3.1110 C   0  0  0  0  0  0  0  0  0  0  0  0
   -5.1940   -2.8390   -4.2640 C   0  0  0  0  0  0  0  0  0  0  0  0
   -6.0850   -2.0780   -5.0070 C   0  0  0  0  0  0  0  0  0  0  0  0
   -7.3470   -1.9600   -4.6270 N   0  0  0  0  0  0  0  0  0  0  0  0
  -12.1450   -0.9640   -2.3390 O   0  0  0  0  0  0  0  0  0  0  0  0
  -18.7610   -1.8760   -2.7390 F   0  0  0  0  0  0  0  0  0  0  0  0
  -18.4550    0.3250   -2.2750 F   0  0  0  0  0  0  0  0  0  0  0  0
  -19.1950   -1.1300   -0.7370 F   0  0  0  0  0  0  0  0  0  0  0  0
   -9.7920   -3.7475   -2.8656 C   0  0  0  0  0  0  0  0  0  0  0  0
  -10.0717   -1.8029   -4.3549 C   0  0  0  0  0  0  0  0  0  0  0  0
   -9.2295   -4.7877   -2.1591 C   0  0  0  0  0  0  0  0  0  0  0  0
  -11.1116   -4.2050   -3.4384 C   0  0  0  0  0  0  0  0  0  0  0  0
  -11.9565   -3.7550   -2.6387 F   0  0  0  0  0  0  0  0  0  0  0  0
  -11.2475   -5.5822   -3.4564 F   0  0  0  0  0  0  0  0  0  0  0  0
  1  2  2  0
  2  3  1  0
  2 16  1  0
  3  4  1  0
  3  6  2  0
  4  5  1  0
  6  7  1  0
  7 15  1  0
  7  8  1  0
 11 12  1  0
 12 28  1  0
 12 27  1  0
 12 26  1  0
 15 16  1  0
 15 25  2  0
 16 17  1  0
 17 18  1  0
 18 19  1  0
 18 29  1  0
 18 30  1  0
 29 31  2  0
 29 32  1  0
 32 33  1  0
 32 34  1  0
  8  9  2  0
  9 10  1  0
 10 11  2  0
 11 13  1  0
 13 14  2  0
 14  8  1  0
 19 20  2  0
 20 21  1  0
 21 22  2  0
 22 23  1  0
 23 24  2  0
 24 19  1  0
M  END

$$$$
No_205-gen_results_new/Mpro_new_generate_500/2024-01-19-21-58-56/
     RDKit          3D

 35 37  0  0  0  0  0  0  0  0999 V2000
   -9.1300   -2.9100    0.4520 O   0  0  0  0  0  0  0  0  0  0  0  0
  -10.2490   -2.6420    0.1800 C   0  0  0  0  0  0  0  0  0  0  0  0
  -11.3800   -3.0650    1.0860 C   0  0  0  0  0  0  0  0  0  0  0  0
  -11.2000   -3.8390    2.3880 C   0  0  0  0  0  0  0  0  0  0  0  0
  -10.9900   -5.0690    2.3420 N   0  0  0  0  0  0  0  0  0  0  0  0
  -12.7310   -2.7290    0.7330 N   0  0  0  0  0  0  0  0  0  0  0  0
  -12.9960   -1.9940   -0.4510 N   0  0  0  0  0  0  0  0  0  0  0  0
  -14.3580   -1.6940   -0.7530 C   0  0  0  0  0  0  0  0  0  0  0  0
  -15.0390   -0.7180   -0.0560 C   0  0  0  0  0  0  0  0  0  0  0  0
  -16.3510   -0.4690   -0.3980 C   0  0  0  0  0  0  0  0  0  0  0  0
  -16.9430   -1.2030   -1.4080 C   0  0  0  0  0  0  0  0  0  0  0  0
  -18.3840   -0.9560   -1.8060 C   0  0  0  0  0  0  0  0  0  0  0  0
  -16.2510   -2.1690   -2.1000 C   0  0  0  0  0  0  0  0  0  0  0  0
  -14.9490   -2.4160   -1.7590 C   0  0  0  0  0  0  0  0  0  0  0  0
  -11.9050   -1.5730   -1.3540 C   0  0  0  0  0  0  0  0  0  0  0  0
  -10.5280   -1.9050   -1.0240 N   0  0  0  0  0  0  0  0  0  0  0  0
   -9.4550   -1.4720   -1.9190 C   0  0  0  0  0  0  0  0  0  0  0  0
   -9.2820   -2.3940   -3.1270 C   0  0  0  0  0  0  0  0  0  0  0  0
   -7.8170   -2.5500   -3.5360 C   0  0  0  0  0  0  0  0  0  0  0  0
   -6.9720   -3.3210   -2.7550 C   0  0  0  0  0  0  0  0  0  0  0  0
   -5.6390   -3.4770   -3.1110 C   0  0  0  0  0  0  0  0  0  0  0  0
   -5.1940   -2.8390   -4.2640 C   0  0  0  0  0  0  0  0  0  0  0  0
   -6.0850   -2.0780   -5.0070 C   0  0  0  0  0  0  0  0  0  0  0  0
   -7.3470   -1.9600   -4.6270 N   0  0  0  0  0  0  0  0  0  0  0  0
  -12.1450   -0.9640   -2.3390 O   0  0  0  0  0  0  0  0  0  0  0  0
  -18.7610   -1.8760   -2.7390 F   0  0  0  0  0  0  0  0  0  0  0  0
  -18.4550    0.3250   -2.2750 F   0  0  0  0  0  0  0  0  0  0  0  0
  -19.1950   -1.1300   -0.7370 F   0  0  0  0  0  0  0  0  0  0  0  0
  -10.0453   -2.0069   -4.3181 C   0  0  0  0  0  0  0  0  0  0  0  0
   -9.8476   -3.8948   -2.8015 C   0  0  0  0  0  0  0  0  0  0  0  0
  -10.1714   -4.7331   -3.9309 C   0  0  0  0  0  0  0  0  0  0  0  0
  -11.3050   -4.6807   -4.5887 C   0  0  0  0  0  0  0  0  0  0  0  0
  -11.4770   -5.5200   -5.6733 O   0  0  0  0  0  0  0  0  0  0  0  0
  -10.7357   -5.5487   -6.7022 C   0  0  0  0  0  0  0  0  0  0  0  0
   -9.5768   -6.1966   -6.7458 C   0  0  0  0  0  0  0  0  0  0  0  0
  1  2  2  0
  2  3  1  0
  2 16  1  0
  3  4  1  0
  3  6  2  0
  4  5  1  0
  6  7  1  0
  7 15  1  0
  7  8  1  0
 11 12  1  0
 12 28  1  0
 12 27  1  0
 12 26  1  0
 15 16  1  0
 15 25  2  0
 16 17  1  0
 17 18  1  0
 18 19  1  0
 18 29  1  0
 18 30  1  0
 30 31  1  0
 31 32  1  0
 32 33  1  0
 33 34  1  0
 34 35  1  0
  8  9  2  0
  9 10  1  0
 10 11  2  0
 11 13  1  0
 13 14  2  0
 14  8  1  0
 19 20  2  0
 20 21  1  0
 21 22  2  0
 22 23  1  0
 23 24  2  0
 24 19  1  0
M  END

$$$$
No_206-gen_results_new/Mpro_new_generate_500/2024-01-19-21-58-56/
     RDKit          3D

 32 34  0  0  0  0  0  0  0  0999 V2000
   -9.1300   -2.9100    0.4520 O   0  0  0  0  0  0  0  0  0  0  0  0
  -10.2490   -2.6420    0.1800 C   0  0  0  0  0  0  0  0  0  0  0  0
  -11.3800   -3.0650    1.0860 C   0  0  0  0  0  0  0  0  0  0  0  0
  -11.2000   -3.8390    2.3880 C   0  0  0  0  0  0  0  0  0  0  0  0
  -10.9900   -5.0690    2.3420 N   0  0  0  0  0  0  0  0  0  0  0  0
  -12.7310   -2.7290    0.7330 N   0  0  0  0  0  0  0  0  0  0  0  0
  -12.9960   -1.9940   -0.4510 N   0  0  0  0  0  0  0  0  0  0  0  0
  -14.3580   -1.6940   -0.7530 C   0  0  0  0  0  0  0  0  0  0  0  0
  -15.0390   -0.7180   -0.0560 C   0  0  0  0  0  0  0  0  0  0  0  0
  -16.3510   -0.4690   -0.3980 C   0  0  0  0  0  0  0  0  0  0  0  0
  -16.9430   -1.2030   -1.4080 C   0  0  0  0  0  0  0  0  0  0  0  0
  -18.3840   -0.9560   -1.8060 C   0  0  0  0  0  0  0  0  0  0  0  0
  -16.2510   -2.1690   -2.1000 C   0  0  0  0  0  0  0  0  0  0  0  0
  -14.9490   -2.4160   -1.7590 C   0  0  0  0  0  0  0  0  0  0  0  0
  -11.9050   -1.5730   -1.3540 C   0  0  0  0  0  0  0  0  0  0  0  0
  -10.5280   -1.9050   -1.0240 N   0  0  0  0  0  0  0  0  0  0  0  0
   -9.4550   -1.4720   -1.9190 C   0  0  0  0  0  0  0  0  0  0  0  0
   -9.2820   -2.3940   -3.1270 C   0  0  0  0  0  0  0  0  0  0  0  0
   -7.8170   -2.5500   -3.5360 C   0  0  0  0  0  0  0  0  0  0  0  0
   -6.9720   -3.3210   -2.7550 C   0  0  0  0  0  0  0  0  0  0  0  0
   -5.6390   -3.4770   -3.1110 C   0  0  0  0  0  0  0  0  0  0  0  0
   -5.1940   -2.8390   -4.2640 C   0  0  0  0  0  0  0  0  0  0  0  0
   -6.0850   -2.0780   -5.0070 C   0  0  0  0  0  0  0  0  0  0  0  0
   -7.3470   -1.9600   -4.6270 N   0  0  0  0  0  0  0  0  0  0  0  0
  -12.1450   -0.9640   -2.3390 O   0  0  0  0  0  0  0  0  0  0  0  0
  -18.7610   -1.8760   -2.7390 F   0  0  0  0  0  0  0  0  0  0  0  0
  -18.4550    0.3250   -2.2750 F   0  0  0  0  0  0  0  0  0  0  0  0
  -19.1950   -1.1300   -0.7370 F   0  0  0  0  0  0  0  0  0  0  0  0
  -10.1467   -3.0903   -3.8357 C   0  0  0  0  0  0  0  0  0  0  0  0
  -10.1681   -2.5855   -3.6007 C   0  0  0  0  0  0  0  0  0  0  0  0
  -10.4499   -1.5957   -4.9129 C   0  0  0  0  0  0  0  0  0  0  0  0
  -11.4305   -2.6385   -3.0587 F   0  0  0  0  0  0  0  0  0  0  0  0
  1  2  2  0
  2  3  1  0
  2 16  1  0
  3  4  1  0
  3  6  2  0
  4  5  1  0
  6  7  1  0
  7 15  1  0
  7  8  1  0
 11 12  1  0
 12 28  1  0
 12 27  1  0
 12 26  1  0
 15 16  1  0
 15 25  2  0
 16 17  1  0
 17 18  1  0
 18 19  1  0
 18 29  1  0
 29 30  1  0
 30 31  1  0
 29 32  1  0
  8  9  2  0
  9 10  1  0
 10 11  2  0
 11 13  1  0
 13 14  2  0
 14  8  1  0
 19 20  2  0
 20 21  1  0
 21 22  2  0
 22 23  1  0
 23 24  2  0
 24 19  1  0
M  END

$$$$
No_207-gen_results_new/Mpro_new_generate_500/2024-01-19-21-58-56/
     RDKit          3D

 31 33  0  0  0  0  0  0  0  0999 V2000
   -9.1300   -2.9100    0.4520 O   0  0  0  0  0  0  0  0  0  0  0  0
  -10.2490   -2.6420    0.1800 C   0  0  0  0  0  0  0  0  0  0  0  0
  -11.3800   -3.0650    1.0860 C   0  0  0  0  0  0  0  0  0  0  0  0
  -11.2000   -3.8390    2.3880 C   0  0  0  0  0  0  0  0  0  0  0  0
  -10.9900   -5.0690    2.3420 N   0  0  0  0  0  0  0  0  0  0  0  0
  -12.7310   -2.7290    0.7330 N   0  0  0  0  0  0  0  0  0  0  0  0
  -12.9960   -1.9940   -0.4510 N   0  0  0  0  0  0  0  0  0  0  0  0
  -14.3580   -1.6940   -0.7530 C   0  0  0  0  0  0  0  0  0  0  0  0
  -15.0390   -0.7180   -0.0560 C   0  0  0  0  0  0  0  0  0  0  0  0
  -16.3510   -0.4690   -0.3980 C   0  0  0  0  0  0  0  0  0  0  0  0
  -16.9430   -1.2030   -1.4080 C   0  0  0  0  0  0  0  0  0  0  0  0
  -18.3840   -0.9560   -1.8060 C   0  0  0  0  0  0  0  0  0  0  0  0
  -16.2510   -2.1690   -2.1000 C   0  0  0  0  0  0  0  0  0  0  0  0
  -14.9490   -2.4160   -1.7590 C   0  0  0  0  0  0  0  0  0  0  0  0
  -11.9050   -1.5730   -1.3540 C   0  0  0  0  0  0  0  0  0  0  0  0
  -10.5280   -1.9050   -1.0240 N   0  0  0  0  0  0  0  0  0  0  0  0
   -9.4550   -1.4720   -1.9190 C   0  0  0  0  0  0  0  0  0  0  0  0
   -9.2820   -2.3940   -3.1270 C   0  0  0  0  0  0  0  0  0  0  0  0
   -7.8170   -2.5500   -3.5360 C   0  0  0  0  0  0  0  0  0  0  0  0
   -6.9720   -3.3210   -2.7550 C   0  0  0  0  0  0  0  0  0  0  0  0
   -5.6390   -3.4770   -3.1110 C   0  0  0  0  0  0  0  0  0  0  0  0
   -5.1940   -2.8390   -4.2640 C   0  0  0  0  0  0  0  0  0  0  0  0
   -6.0850   -2.0780   -5.0070 C   0  0  0  0  0  0  0  0  0  0  0  0
   -7.3470   -1.9600   -4.6270 N   0  0  0  0  0  0  0  0  0  0  0  0
  -12.1450   -0.9640   -2.3390 O   0  0  0  0  0  0  0  0  0  0  0  0
  -18.7610   -1.8760   -2.7390 F   0  0  0  0  0  0  0  0  0  0  0  0
  -18.4550    0.3250   -2.2750 F   0  0  0  0  0  0  0  0  0  0  0  0
  -19.1950   -1.1300   -0.7370 F   0  0  0  0  0  0  0  0  0  0  0  0
   -9.9592   -1.9070   -4.1913 F   0  0  0  0  0  0  0  0  0  0  0  0
   -9.8231   -3.6819   -2.9032 F   0  0  0  0  0  0  0  0  0  0  0  0
  -16.6142   -3.3448   -3.0075 C   0  0  0  0  0  0  0  0  0  0  0  0
  1  2  2  0
  2  3  1  0
  2 16  1  0
  3  4  1  0
  3  6  2  0
  4  5  1  0
  6  7  1  0
  7 15  1  0
  7  8  1  0
 11 12  1  0
 12 28  1  0
 12 27  1  0
 12 26  1  0
 15 16  1  0
 15 25  2  0
 16 17  1  0
 17 18  1  0
 18 19  1  0
 18 29  1  0
 18 30  1  0
 13 31  1  0
  8  9  2  0
  9 10  1  0
 10 11  2  0
 11 13  1  0
 13 14  2  0
 14  8  1  0
 19 20  2  0
 20 21  1  0
 21 22  2  0
 22 23  1  0
 23 24  2  0
 24 19  1  0
M  END

$$$$
No_208-gen_results_new/Mpro_new_generate_500/2024-01-19-21-58-56/
     RDKit          3D

 34 36  0  0  0  0  0  0  0  0999 V2000
   -9.1300   -2.9100    0.4520 O   0  0  0  0  0  0  0  0  0  0  0  0
  -10.2490   -2.6420    0.1800 C   0  0  0  0  0  0  0  0  0  0  0  0
  -11.3800   -3.0650    1.0860 C   0  0  0  0  0  0  0  0  0  0  0  0
  -11.2000   -3.8390    2.3880 C   0  0  0  0  0  0  0  0  0  0  0  0
  -10.9900   -5.0690    2.3420 N   0  0  0  0  0  0  0  0  0  0  0  0
  -12.7310   -2.7290    0.7330 N   0  0  0  0  0  0  0  0  0  0  0  0
  -12.9960   -1.9940   -0.4510 N   0  0  0  0  0  0  0  0  0  0  0  0
  -14.3580   -1.6940   -0.7530 C   0  0  0  0  0  0  0  0  0  0  0  0
  -15.0390   -0.7180   -0.0560 C   0  0  0  0  0  0  0  0  0  0  0  0
  -16.3510   -0.4690   -0.3980 C   0  0  0  0  0  0  0  0  0  0  0  0
  -16.9430   -1.2030   -1.4080 C   0  0  0  0  0  0  0  0  0  0  0  0
  -18.3840   -0.9560   -1.8060 C   0  0  0  0  0  0  0  0  0  0  0  0
  -16.2510   -2.1690   -2.1000 C   0  0  0  0  0  0  0  0  0  0  0  0
  -14.9490   -2.4160   -1.7590 C   0  0  0  0  0  0  0  0  0  0  0  0
  -11.9050   -1.5730   -1.3540 C   0  0  0  0  0  0  0  0  0  0  0  0
  -10.5280   -1.9050   -1.0240 N   0  0  0  0  0  0  0  0  0  0  0  0
   -9.4550   -1.4720   -1.9190 C   0  0  0  0  0  0  0  0  0  0  0  0
   -9.2820   -2.3940   -3.1270 C   0  0  0  0  0  0  0  0  0  0  0  0
   -7.8170   -2.5500   -3.5360 C   0  0  0  0  0  0  0  0  0  0  0  0
   -6.9720   -3.3210   -2.7550 C   0  0  0  0  0  0  0  0  0  0  0  0
   -5.6390   -3.4770   -3.1110 C   0  0  0  0  0  0  0  0  0  0  0  0
   -5.1940   -2.8390   -4.2640 C   0  0  0  0  0  0  0  0  0  0  0  0
   -6.0850   -2.0780   -5.0070 C   0  0  0  0  0  0  0  0  0  0  0  0
   -7.3470   -1.9600   -4.6270 N   0  0  0  0  0  0  0  0  0  0  0  0
  -12.1450   -0.9640   -2.3390 O   0  0  0  0  0  0  0  0  0  0  0  0
  -18.7610   -1.8760   -2.7390 F   0  0  0  0  0  0  0  0  0  0  0  0
  -18.4550    0.3250   -2.2750 F   0  0  0  0  0  0  0  0  0  0  0  0
  -19.1950   -1.1300   -0.7370 F   0  0  0  0  0  0  0  0  0  0  0  0
  -10.0453   -2.0069   -4.3181 C   0  0  0  0  0  0  0  0  0  0  0  0
   -9.8476   -3.8948   -2.8015 C   0  0  0  0  0  0  0  0  0  0  0  0
   -9.1680   -4.8526   -2.1325 C   0  0  0  0  0  0  0  0  0  0  0  0
  -11.0936   -4.1834   -3.0146 O   0  0  0  0  0  0  0  0  0  0  0  0
   -9.8927   -5.5200   -1.2995 F   0  0  0  0  0  0  0  0  0  0  0  0
   -8.1144   -4.8988   -2.0660 F   0  0  0  0  0  0  0  0  0  0  0  0
  1  2  2  0
  2  3  1  0
  2 16  1  0
  3  4  1  0
  3  6  2  0
  4  5  1  0
  6  7  1  0
  7 15  1  0
  7  8  1  0
 11 12  1  0
 12 28  1  0
 12 27  1  0
 12 26  1  0
 15 16  1  0
 15 25  2  0
 16 17  1  0
 17 18  1  0
 18 19  1  0
 18 29  1  0
 18 30  1  0
 30 31  1  0
 30 32  2  0
 31 33  1  0
 31 34  1  0
  8  9  2  0
  9 10  1  0
 10 11  2  0
 11 13  1  0
 13 14  2  0
 14  8  1  0
 19 20  2  0
 20 21  1  0
 21 22  2  0
 22 23  1  0
 23 24  2  0
 24 19  1  0
M  END

$$$$
No_209-gen_results_new/Mpro_new_generate_500/2024-01-19-21-58-56/
     RDKit          3D

 34 36  0  0  0  0  0  0  0  0999 V2000
   -9.1300   -2.9100    0.4520 O   0  0  0  0  0  0  0  0  0  0  0  0
  -10.2490   -2.6420    0.1800 C   0  0  0  0  0  0  0  0  0  0  0  0
  -11.3800   -3.0650    1.0860 C   0  0  0  0  0  0  0  0  0  0  0  0
  -11.2000   -3.8390    2.3880 C   0  0  0  0  0  0  0  0  0  0  0  0
  -10.9900   -5.0690    2.3420 N   0  0  0  0  0  0  0  0  0  0  0  0
  -12.7310   -2.7290    0.7330 N   0  0  0  0  0  0  0  0  0  0  0  0
  -12.9960   -1.9940   -0.4510 N   0  0  0  0  0  0  0  0  0  0  0  0
  -14.3580   -1.6940   -0.7530 C   0  0  0  0  0  0  0  0  0  0  0  0
  -15.0390   -0.7180   -0.0560 C   0  0  0  0  0  0  0  0  0  0  0  0
  -16.3510   -0.4690   -0.3980 C   0  0  0  0  0  0  0  0  0  0  0  0
  -16.9430   -1.2030   -1.4080 C   0  0  0  0  0  0  0  0  0  0  0  0
  -18.3840   -0.9560   -1.8060 C   0  0  0  0  0  0  0  0  0  0  0  0
  -16.2510   -2.1690   -2.1000 C   0  0  0  0  0  0  0  0  0  0  0  0
  -14.9490   -2.4160   -1.7590 C   0  0  0  0  0  0  0  0  0  0  0  0
  -11.9050   -1.5730   -1.3540 C   0  0  0  0  0  0  0  0  0  0  0  0
  -10.5280   -1.9050   -1.0240 N   0  0  0  0  0  0  0  0  0  0  0  0
   -9.4550   -1.4720   -1.9190 C   0  0  0  0  0  0  0  0  0  0  0  0
   -9.2820   -2.3940   -3.1270 C   0  0  0  0  0  0  0  0  0  0  0  0
   -7.8170   -2.5500   -3.5360 C   0  0  0  0  0  0  0  0  0  0  0  0
   -6.9720   -3.3210   -2.7550 C   0  0  0  0  0  0  0  0  0  0  0  0
   -5.6390   -3.4770   -3.1110 C   0  0  0  0  0  0  0  0  0  0  0  0
   -5.1940   -2.8390   -4.2640 C   0  0  0  0  0  0  0  0  0  0  0  0
   -6.0850   -2.0780   -5.0070 C   0  0  0  0  0  0  0  0  0  0  0  0
   -7.3470   -1.9600   -4.6270 N   0  0  0  0  0  0  0  0  0  0  0  0
  -12.1450   -0.9640   -2.3390 O   0  0  0  0  0  0  0  0  0  0  0  0
  -18.7610   -1.8760   -2.7390 F   0  0  0  0  0  0  0  0  0  0  0  0
  -18.4550    0.3250   -2.2750 F   0  0  0  0  0  0  0  0  0  0  0  0
  -19.1950   -1.1300   -0.7370 F   0  0  0  0  0  0  0  0  0  0  0  0
  -10.0453   -2.0069   -4.3181 C   0  0  0  0  0  0  0  0  0  0  0  0
   -9.8476   -3.8948   -2.8015 C   0  0  0  0  0  0  0  0  0  0  0  0
  -10.1714   -4.7331   -3.9309 C   0  0  0  0  0  0  0  0  0  0  0  0
  -10.1706   -6.0308   -3.5979 O   0  0  0  0  0  0  0  0  0  0  0  0
   -9.4459   -6.4041   -2.5012 C   0  0  0  0  0  0  0  0  0  0  0  0
   -9.4844   -6.0477   -1.5062 C   0  0  0  0  0  0  0  0  0  0  0  0
  1  2  2  0
  2  3  1  0
  2 16  1  0
  3  4  1  0
  3  6  2  0
  4  5  1  0
  6  7  1  0
  7 15  1  0
  7  8  1  0
 11 12  1  0
 12 28  1  0
 12 27  1  0
 12 26  1  0
 15 16  1  0
 15 25  2  0
 16 17  1  0
 17 18  1  0
 18 19  1  0
 18 29  1  0
 18 30  1  0
 30 31  2  3
 31 32  1  0
 32 33  1  0
 33 34  2  0
  8  9  2  0
  9 10  1  0
 10 11  2  0
 11 13  1  0
 13 14  2  0
 14  8  1  0
 19 20  2  0
 20 21  1  0
 21 22  2  0
 22 23  1  0
 23 24  2  0
 24 19  1  0
M  END

$$$$
No_210-gen_results_new/Mpro_new_generate_500/2024-01-19-21-58-56/
     RDKit          3D

 35 37  0  0  0  0  0  0  0  0999 V2000
   -9.1300   -2.9100    0.4520 O   0  0  0  0  0  0  0  0  0  0  0  0
  -10.2490   -2.6420    0.1800 C   0  0  0  0  0  0  0  0  0  0  0  0
  -11.3800   -3.0650    1.0860 C   0  0  0  0  0  0  0  0  0  0  0  0
  -11.2000   -3.8390    2.3880 C   0  0  0  0  0  0  0  0  0  0  0  0
  -10.9900   -5.0690    2.3420 N   0  0  0  0  0  0  0  0  0  0  0  0
  -12.7310   -2.7290    0.7330 N   0  0  0  0  0  0  0  0  0  0  0  0
  -12.9960   -1.9940   -0.4510 N   0  0  0  0  0  0  0  0  0  0  0  0
  -14.3580   -1.6940   -0.7530 C   0  0  0  0  0  0  0  0  0  0  0  0
  -15.0390   -0.7180   -0.0560 C   0  0  0  0  0  0  0  0  0  0  0  0
  -16.3510   -0.4690   -0.3980 C   0  0  0  0  0  0  0  0  0  0  0  0
  -16.9430   -1.2030   -1.4080 C   0  0  0  0  0  0  0  0  0  0  0  0
  -18.3840   -0.9560   -1.8060 C   0  0  0  0  0  0  0  0  0  0  0  0
  -16.2510   -2.1690   -2.1000 C   0  0  0  0  0  0  0  0  0  0  0  0
  -14.9490   -2.4160   -1.7590 C   0  0  0  0  0  0  0  0  0  0  0  0
  -11.9050   -1.5730   -1.3540 C   0  0  0  0  0  0  0  0  0  0  0  0
  -10.5280   -1.9050   -1.0240 N   0  0  0  0  0  0  0  0  0  0  0  0
   -9.4550   -1.4720   -1.9190 C   0  0  0  0  0  0  0  0  0  0  0  0
   -9.2820   -2.3940   -3.1270 C   0  0  0  0  0  0  0  0  0  0  0  0
   -7.8170   -2.5500   -3.5360 C   0  0  0  0  0  0  0  0  0  0  0  0
   -6.9720   -3.3210   -2.7550 C   0  0  0  0  0  0  0  0  0  0  0  0
   -5.6390   -3.4770   -3.1110 C   0  0  0  0  0  0  0  0  0  0  0  0
   -5.1940   -2.8390   -4.2640 C   0  0  0  0  0  0  0  0  0  0  0  0
   -6.0850   -2.0780   -5.0070 C   0  0  0  0  0  0  0  0  0  0  0  0
   -7.3470   -1.9600   -4.6270 N   0  0  0  0  0  0  0  0  0  0  0  0
  -12.1450   -0.9640   -2.3390 O   0  0  0  0  0  0  0  0  0  0  0  0
  -18.7610   -1.8760   -2.7390 F   0  0  0  0  0  0  0  0  0  0  0  0
  -18.4550    0.3250   -2.2750 F   0  0  0  0  0  0  0  0  0  0  0  0
  -19.1950   -1.1300   -0.7370 F   0  0  0  0  0  0  0  0  0  0  0  0
   -9.7920   -3.7475   -2.8656 C   0  0  0  0  0  0  0  0  0  0  0  0
  -10.0717   -1.8029   -4.3549 C   0  0  0  0  0  0  0  0  0  0  0  0
   -9.2295   -4.7877   -2.1591 C   0  0  0  0  0  0  0  0  0  0  0  0
  -11.0250   -4.1168   -3.3136 O   0  0  0  0  0  0  0  0  0  0  0  0
  -11.9963   -4.8856   -3.5283 C   0  0  0  0  0  0  0  0  0  0  0  0
  -12.2921   -5.5374   -4.6651 C   0  0  0  0  0  0  0  0  0  0  0  0
  -13.1291   -4.4655   -2.5651 C   0  0  0  0  0  0  0  0  0  0  0  0
  1  2  2  0
  2  3  1  0
  2 16  1  0
  3  4  1  0
  3  6  2  0
  4  5  1  0
  6  7  1  0
  7 15  1  0
  7  8  1  0
 11 12  1  0
 12 28  1  0
 12 27  1  0
 12 26  1  0
 15 16  1  0
 15 25  2  0
 16 17  1  0
 17 18  1  0
 18 19  1  0
 18 29  1  0
 18 30  1  0
 29 31  2  0
 29 32  1  0
 32 33  1  0
 33 34  1  0
 33 35  1  0
  8  9  2  0
  9 10  1  0
 10 11  2  0
 11 13  1  0
 13 14  2  0
 14  8  1  0
 19 20  2  0
 20 21  1  0
 21 22  2  0
 22 23  1  0
 23 24  2  0
 24 19  1  0
M  END

$$$$
No_211-gen_results_new/Mpro_new_generate_500/2024-01-19-21-58-56/
     RDKit          3D

 32 34  0  0  0  0  0  0  0  0999 V2000
   -9.1300   -2.9100    0.4520 O   0  0  0  0  0  0  0  0  0  0  0  0
  -10.2490   -2.6420    0.1800 C   0  0  0  0  0  0  0  0  0  0  0  0
  -11.3800   -3.0650    1.0860 C   0  0  0  0  0  0  0  0  0  0  0  0
  -11.2000   -3.8390    2.3880 C   0  0  0  0  0  0  0  0  0  0  0  0
  -10.9900   -5.0690    2.3420 N   0  0  0  0  0  0  0  0  0  0  0  0
  -12.7310   -2.7290    0.7330 N   0  0  0  0  0  0  0  0  0  0  0  0
  -12.9960   -1.9940   -0.4510 N   0  0  0  0  0  0  0  0  0  0  0  0
  -14.3580   -1.6940   -0.7530 C   0  0  0  0  0  0  0  0  0  0  0  0
  -15.0390   -0.7180   -0.0560 C   0  0  0  0  0  0  0  0  0  0  0  0
  -16.3510   -0.4690   -0.3980 C   0  0  0  0  0  0  0  0  0  0  0  0
  -16.9430   -1.2030   -1.4080 C   0  0  0  0  0  0  0  0  0  0  0  0
  -18.3840   -0.9560   -1.8060 C   0  0  0  0  0  0  0  0  0  0  0  0
  -16.2510   -2.1690   -2.1000 C   0  0  0  0  0  0  0  0  0  0  0  0
  -14.9490   -2.4160   -1.7590 C   0  0  0  0  0  0  0  0  0  0  0  0
  -11.9050   -1.5730   -1.3540 C   0  0  0  0  0  0  0  0  0  0  0  0
  -10.5280   -1.9050   -1.0240 N   0  0  0  0  0  0  0  0  0  0  0  0
   -9.4550   -1.4720   -1.9190 C   0  0  0  0  0  0  0  0  0  0  0  0
   -9.2820   -2.3940   -3.1270 C   0  0  0  0  0  0  0  0  0  0  0  0
   -7.8170   -2.5500   -3.5360 C   0  0  0  0  0  0  0  0  0  0  0  0
   -6.9720   -3.3210   -2.7550 C   0  0  0  0  0  0  0  0  0  0  0  0
   -5.6390   -3.4770   -3.1110 C   0  0  0  0  0  0  0  0  0  0  0  0
   -5.1940   -2.8390   -4.2640 C   0  0  0  0  0  0  0  0  0  0  0  0
   -6.0850   -2.0780   -5.0070 C   0  0  0  0  0  0  0  0  0  0  0  0
   -7.3470   -1.9600   -4.6270 N   0  0  0  0  0  0  0  0  0  0  0  0
  -12.1450   -0.9640   -2.3390 O   0  0  0  0  0  0  0  0  0  0  0  0
  -18.7610   -1.8760   -2.7390 F   0  0  0  0  0  0  0  0  0  0  0  0
  -18.4550    0.3250   -2.2750 F   0  0  0  0  0  0  0  0  0  0  0  0
  -19.1950   -1.1300   -0.7370 F   0  0  0  0  0  0  0  0  0  0  0  0
   -9.7920   -3.7475   -2.8656 C   0  0  0  0  0  0  0  0  0  0  0  0
  -10.1387   -2.0206   -4.2903 C   0  0  0  0  0  0  0  0  0  0  0  0
   -9.2855   -4.6665   -2.0006 C   0  0  0  0  0  0  0  0  0  0  0  0
  -11.0302   -4.3477   -3.4017 C   0  0  0  0  0  0  0  0  0  0  0  0
  1  2  2  0
  2  3  1  0
  2 16  1  0
  3  4  1  0
  3  6  2  0
  4  5  1  0
  6  7  1  0
  7 15  1  0
  7  8  1  0
 11 12  1  0
 12 28  1  0
 12 27  1  0
 12 26  1  0
 15 16  1  0
 15 25  2  0
 16 17  1  0
 17 18  1  0
 18 19  1  0
 18 29  1  0
 18 30  1  0
 29 31  2  0
 29 32  1  0
  8  9  2  0
  9 10  1  0
 10 11  2  0
 11 13  1  0
 13 14  2  0
 14  8  1  0
 19 20  2  0
 20 21  1  0
 21 22  2  0
 22 23  1  0
 23 24  2  0
 24 19  1  0
M  END

$$$$
No_212-gen_results_new/Mpro_new_generate_500/2024-01-19-21-58-56/
     RDKit          3D

 34 36  0  0  0  0  0  0  0  0999 V2000
   -9.1300   -2.9100    0.4520 O   0  0  0  0  0  0  0  0  0  0  0  0
  -10.2490   -2.6420    0.1800 C   0  0  0  0  0  0  0  0  0  0  0  0
  -11.3800   -3.0650    1.0860 C   0  0  0  0  0  0  0  0  0  0  0  0
  -11.2000   -3.8390    2.3880 C   0  0  0  0  0  0  0  0  0  0  0  0
  -10.9900   -5.0690    2.3420 N   0  0  0  0  0  0  0  0  0  0  0  0
  -12.7310   -2.7290    0.7330 N   0  0  0  0  0  0  0  0  0  0  0  0
  -12.9960   -1.9940   -0.4510 N   0  0  0  0  0  0  0  0  0  0  0  0
  -14.3580   -1.6940   -0.7530 C   0  0  0  0  0  0  0  0  0  0  0  0
  -15.0390   -0.7180   -0.0560 C   0  0  0  0  0  0  0  0  0  0  0  0
  -16.3510   -0.4690   -0.3980 C   0  0  0  0  0  0  0  0  0  0  0  0
  -16.9430   -1.2030   -1.4080 C   0  0  0  0  0  0  0  0  0  0  0  0
  -18.3840   -0.9560   -1.8060 C   0  0  0  0  0  0  0  0  0  0  0  0
  -16.2510   -2.1690   -2.1000 C   0  0  0  0  0  0  0  0  0  0  0  0
  -14.9490   -2.4160   -1.7590 C   0  0  0  0  0  0  0  0  0  0  0  0
  -11.9050   -1.5730   -1.3540 C   0  0  0  0  0  0  0  0  0  0  0  0
  -10.5280   -1.9050   -1.0240 N   0  0  0  0  0  0  0  0  0  0  0  0
   -9.4550   -1.4720   -1.9190 C   0  0  0  0  0  0  0  0  0  0  0  0
   -9.2820   -2.3940   -3.1270 C   0  0  0  0  0  0  0  0  0  0  0  0
   -7.8170   -2.5500   -3.5360 C   0  0  0  0  0  0  0  0  0  0  0  0
   -6.9720   -3.3210   -2.7550 C   0  0  0  0  0  0  0  0  0  0  0  0
   -5.6390   -3.4770   -3.1110 C   0  0  0  0  0  0  0  0  0  0  0  0
   -5.1940   -2.8390   -4.2640 C   0  0  0  0  0  0  0  0  0  0  0  0
   -6.0850   -2.0780   -5.0070 C   0  0  0  0  0  0  0  0  0  0  0  0
   -7.3470   -1.9600   -4.6270 N   0  0  0  0  0  0  0  0  0  0  0  0
  -12.1450   -0.9640   -2.3390 O   0  0  0  0  0  0  0  0  0  0  0  0
  -18.7610   -1.8760   -2.7390 F   0  0  0  0  0  0  0  0  0  0  0  0
  -18.4550    0.3250   -2.2750 F   0  0  0  0  0  0  0  0  0  0  0  0
  -19.1950   -1.1300   -0.7370 F   0  0  0  0  0  0  0  0  0  0  0  0
  -10.0453   -2.0069   -4.3181 C   0  0  0  0  0  0  0  0  0  0  0  0
   -9.8476   -3.8948   -2.8015 C   0  0  0  0  0  0  0  0  0  0  0  0
   -9.1680   -4.8526   -2.1325 C   0  0  0  0  0  0  0  0  0  0  0  0
  -11.2206   -4.0441   -2.7353 C   0  0  0  0  0  0  0  0  0  0  0  0
   -8.8691   -6.1498   -2.3743 C   0  0  0  0  0  0  0  0  0  0  0  0
   -9.6093   -5.2356   -0.7260 C   0  0  0  0  0  0  0  0  0  0  0  0
  1  2  2  0
  2  3  1  0
  2 16  1  0
  3  4  1  0
  3  6  2  0
  4  5  1  0
  6  7  1  0
  7 15  1  0
  7  8  1  0
 11 12  1  0
 12 28  1  0
 12 27  1  0
 12 26  1  0
 15 16  1  0
 15 25  2  0
 16 17  1  0
 17 18  1  0
 18 19  1  0
 18 29  1  0
 18 30  1  0
 30 31  1  0
 30 32  1  0
 31 33  2  0
 31 34  1  0
  8  9  2  0
  9 10  1  0
 10 11  2  0
 11 13  1  0
 13 14  2  0
 14  8  1  0
 19 20  2  0
 20 21  1  0
 21 22  2  0
 22 23  1  0
 23 24  2  0
 24 19  1  0
M  END

$$$$
No_213-gen_results_new/Mpro_new_generate_500/2024-01-19-21-58-56/
     RDKit          3D

 33 36  0  0  0  0  0  0  0  0999 V2000
   -9.1300   -2.9100    0.4520 O   0  0  0  0  0  0  0  0  0  0  0  0
  -10.2490   -2.6420    0.1800 C   0  0  0  0  0  0  0  0  0  0  0  0
  -11.3800   -3.0650    1.0860 C   0  0  0  0  0  0  0  0  0  0  0  0
  -11.2000   -3.8390    2.3880 C   0  0  0  0  0  0  0  0  0  0  0  0
  -10.9900   -5.0690    2.3420 N   0  0  0  0  0  0  0  0  0  0  0  0
  -12.7310   -2.7290    0.7330 N   0  0  0  0  0  0  0  0  0  0  0  0
  -12.9960   -1.9940   -0.4510 N   0  0  0  0  0  0  0  0  0  0  0  0
  -14.3580   -1.6940   -0.7530 C   0  0  0  0  0  0  0  0  0  0  0  0
  -15.0390   -0.7180   -0.0560 C   0  0  0  0  0  0  0  0  0  0  0  0
  -16.3510   -0.4690   -0.3980 C   0  0  0  0  0  0  0  0  0  0  0  0
  -16.9430   -1.2030   -1.4080 C   0  0  0  0  0  0  0  0  0  0  0  0
  -18.3840   -0.9560   -1.8060 C   0  0  0  0  0  0  0  0  0  0  0  0
  -16.2510   -2.1690   -2.1000 C   0  0  0  0  0  0  0  0  0  0  0  0
  -14.9490   -2.4160   -1.7590 C   0  0  0  0  0  0  0  0  0  0  0  0
  -11.9050   -1.5730   -1.3540 C   0  0  0  0  0  0  0  0  0  0  0  0
  -10.5280   -1.9050   -1.0240 N   0  0  0  0  0  0  0  0  0  0  0  0
   -9.4550   -1.4720   -1.9190 C   0  0  0  0  0  0  0  0  0  0  0  0
   -9.2820   -2.3940   -3.1270 C   0  0  0  0  0  0  0  0  0  0  0  0
   -7.8170   -2.5500   -3.5360 C   0  0  0  0  0  0  0  0  0  0  0  0
   -6.9720   -3.3210   -2.7550 C   0  0  0  0  0  0  0  0  0  0  0  0
   -5.6390   -3.4770   -3.1110 C   0  0  0  0  0  0  0  0  0  0  0  0
   -5.1940   -2.8390   -4.2640 C   0  0  0  0  0  0  0  0  0  0  0  0
   -6.0850   -2.0780   -5.0070 C   0  0  0  0  0  0  0  0  0  0  0  0
   -7.3470   -1.9600   -4.6270 N   0  0  0  0  0  0  0  0  0  0  0  0
  -12.1450   -0.9640   -2.3390 O   0  0  0  0  0  0  0  0  0  0  0  0
  -18.7610   -1.8760   -2.7390 F   0  0  0  0  0  0  0  0  0  0  0  0
  -18.4550    0.3250   -2.2750 F   0  0  0  0  0  0  0  0  0  0  0  0
  -19.1950   -1.1300   -0.7370 F   0  0  0  0  0  0  0  0  0  0  0  0
  -10.0453   -2.0069   -4.3181 C   0  0  0  0  0  0  0  0  0  0  0  0
   -9.8903   -3.8143   -2.9484 C   0  0  0  0  0  0  0  0  0  0  0  0
  -10.8021   -4.2389   -3.8324 C   0  0  0  0  0  0  0  0  0  0  0  0
  -11.0519   -2.9590   -4.5781 C   0  0  0  0  0  0  0  0  0  0  0  0
  -12.2006   -4.7657   -4.1283 F   0  0  0  0  0  0  0  0  0  0  0  0
  1  2  2  0
  2  3  1  0
  2 16  1  0
  3  4  1  0
  3  6  2  0
  4  5  1  0
  6  7  1  0
  7 15  1  0
  7  8  1  0
 11 12  1  0
 12 28  1  0
 12 27  1  0
 12 26  1  0
 15 16  1  0
 15 25  2  0
 16 17  1  0
 17 18  1  0
 18 19  1  0
 18 29  1  0
 18 30  1  0
 30 31  2  0
 29 32  2  0
 31 32  1  0
 31 33  1  0
  8  9  2  0
  9 10  1  0
 10 11  2  0
 11 13  1  0
 13 14  2  0
 14  8  1  0
 19 20  2  0
 20 21  1  0
 21 22  2  0
 22 23  1  0
 23 24  2  0
 24 19  1  0
M  END

$$$$
No_214-gen_results_new/Mpro_new_generate_500/2024-01-19-21-58-56/
     RDKit          3D

 35 38  0  0  0  0  0  0  0  0999 V2000
   -9.1300   -2.9100    0.4520 O   0  0  0  0  0  0  0  0  0  0  0  0
  -10.2490   -2.6420    0.1800 C   0  0  0  0  0  0  0  0  0  0  0  0
  -11.3800   -3.0650    1.0860 C   0  0  0  0  0  0  0  0  0  0  0  0
  -11.2000   -3.8390    2.3880 C   0  0  0  0  0  0  0  0  0  0  0  0
  -10.9900   -5.0690    2.3420 N   0  0  0  0  0  0  0  0  0  0  0  0
  -12.7310   -2.7290    0.7330 N   0  0  0  0  0  0  0  0  0  0  0  0
  -12.9960   -1.9940   -0.4510 N   0  0  0  0  0  0  0  0  0  0  0  0
  -14.3580   -1.6940   -0.7530 C   0  0  0  0  0  0  0  0  0  0  0  0
  -15.0390   -0.7180   -0.0560 C   0  0  0  0  0  0  0  0  0  0  0  0
  -16.3510   -0.4690   -0.3980 C   0  0  0  0  0  0  0  0  0  0  0  0
  -16.9430   -1.2030   -1.4080 C   0  0  0  0  0  0  0  0  0  0  0  0
  -18.3840   -0.9560   -1.8060 C   0  0  0  0  0  0  0  0  0  0  0  0
  -16.2510   -2.1690   -2.1000 C   0  0  0  0  0  0  0  0  0  0  0  0
  -14.9490   -2.4160   -1.7590 C   0  0  0  0  0  0  0  0  0  0  0  0
  -11.9050   -1.5730   -1.3540 C   0  0  0  0  0  0  0  0  0  0  0  0
  -10.5280   -1.9050   -1.0240 N   0  0  0  0  0  0  0  0  0  0  0  0
   -9.4550   -1.4720   -1.9190 C   0  0  0  0  0  0  0  0  0  0  0  0
   -9.2820   -2.3940   -3.1270 C   0  0  0  0  0  0  0  0  0  0  0  0
   -7.8170   -2.5500   -3.5360 C   0  0  0  0  0  0  0  0  0  0  0  0
   -6.9720   -3.3210   -2.7550 C   0  0  0  0  0  0  0  0  0  0  0  0
   -5.6390   -3.4770   -3.1110 C   0  0  0  0  0  0  0  0  0  0  0  0
   -5.1940   -2.8390   -4.2640 C   0  0  0  0  0  0  0  0  0  0  0  0
   -6.0850   -2.0780   -5.0070 C   0  0  0  0  0  0  0  0  0  0  0  0
   -7.3470   -1.9600   -4.6270 N   0  0  0  0  0  0  0  0  0  0  0  0
  -12.1450   -0.9640   -2.3390 O   0  0  0  0  0  0  0  0  0  0  0  0
  -18.7610   -1.8760   -2.7390 F   0  0  0  0  0  0  0  0  0  0  0  0
  -18.4550    0.3250   -2.2750 F   0  0  0  0  0  0  0  0  0  0  0  0
  -19.1950   -1.1300   -0.7370 F   0  0  0  0  0  0  0  0  0  0  0  0
  -10.0453   -2.0069   -4.3181 C   0  0  0  0  0  0  0  0  0  0  0  0
   -9.8476   -3.8948   -2.8015 C   0  0  0  0  0  0  0  0  0  0  0  0
  -10.9871   -4.2370   -3.4678 C   0  0  0  0  0  0  0  0  0  0  0  0
  -11.0932   -2.9485   -4.4299 C   0  0  0  0  0  0  0  0  0  0  0  0
   -9.9937   -0.9959   -5.0580 O   0  0  0  0  0  0  0  0  0  0  0  0
  -11.8514   -5.0986   -3.4499 O   0  0  0  0  0  0  0  0  0  0  0  0
  -12.8942   -4.8220   -2.3615 C   0  0  0  0  0  0  0  0  0  0  0  0
  1  2  2  0
  2  3  1  0
  2 16  1  0
  3  4  1  0
  3  6  2  0
  4  5  1  0
  6  7  1  0
  7 15  1  0
  7  8  1  0
 11 12  1  0
 12 28  1  0
 12 27  1  0
 12 26  1  0
 15 16  1  0
 15 25  2  0
 16 17  1  0
 17 18  1  0
 18 19  1  0
 18 29  1  0
 18 30  1  0
 30 31  1  0
 29 32  1  0
 31 32  2  0
 29 33  2  0
 31 34  1  0
 34 35  1  0
  8  9  2  0
  9 10  1  0
 10 11  2  0
 11 13  1  0
 13 14  2  0
 14  8  1  0
 19 20  2  0
 20 21  1  0
 21 22  2  0
 22 23  1  0
 23 24  2  0
 24 19  1  0
M  END

$$$$
No_215-gen_results_new/Mpro_new_generate_500/2024-01-19-21-58-56/
     RDKit          3D

 32 34  0  0  0  0  0  0  0  0999 V2000
   -9.1300   -2.9100    0.4520 O   0  0  0  0  0  0  0  0  0  0  0  0
  -10.2490   -2.6420    0.1800 C   0  0  0  0  0  0  0  0  0  0  0  0
  -11.3800   -3.0650    1.0860 C   0  0  0  0  0  0  0  0  0  0  0  0
  -11.2000   -3.8390    2.3880 C   0  0  0  0  0  0  0  0  0  0  0  0
  -10.9900   -5.0690    2.3420 N   0  0  0  0  0  0  0  0  0  0  0  0
  -12.7310   -2.7290    0.7330 N   0  0  0  0  0  0  0  0  0  0  0  0
  -12.9960   -1.9940   -0.4510 N   0  0  0  0  0  0  0  0  0  0  0  0
  -14.3580   -1.6940   -0.7530 C   0  0  0  0  0  0  0  0  0  0  0  0
  -15.0390   -0.7180   -0.0560 C   0  0  0  0  0  0  0  0  0  0  0  0
  -16.3510   -0.4690   -0.3980 C   0  0  0  0  0  0  0  0  0  0  0  0
  -16.9430   -1.2030   -1.4080 C   0  0  0  0  0  0  0  0  0  0  0  0
  -18.3840   -0.9560   -1.8060 C   0  0  0  0  0  0  0  0  0  0  0  0
  -16.2510   -2.1690   -2.1000 C   0  0  0  0  0  0  0  0  0  0  0  0
  -14.9490   -2.4160   -1.7590 C   0  0  0  0  0  0  0  0  0  0  0  0
  -11.9050   -1.5730   -1.3540 C   0  0  0  0  0  0  0  0  0  0  0  0
  -10.5280   -1.9050   -1.0240 N   0  0  0  0  0  0  0  0  0  0  0  0
   -9.4550   -1.4720   -1.9190 C   0  0  0  0  0  0  0  0  0  0  0  0
   -9.2820   -2.3940   -3.1270 C   0  0  0  0  0  0  0  0  0  0  0  0
   -7.8170   -2.5500   -3.5360 C   0  0  0  0  0  0  0  0  0  0  0  0
   -6.9720   -3.3210   -2.7550 C   0  0  0  0  0  0  0  0  0  0  0  0
   -5.6390   -3.4770   -3.1110 C   0  0  0  0  0  0  0  0  0  0  0  0
   -5.1940   -2.8390   -4.2640 C   0  0  0  0  0  0  0  0  0  0  0  0
   -6.0850   -2.0780   -5.0070 C   0  0  0  0  0  0  0  0  0  0  0  0
   -7.3470   -1.9600   -4.6270 N   0  0  0  0  0  0  0  0  0  0  0  0
  -12.1450   -0.9640   -2.3390 O   0  0  0  0  0  0  0  0  0  0  0  0
  -18.7610   -1.8760   -2.7390 F   0  0  0  0  0  0  0  0  0  0  0  0
  -18.4550    0.3250   -2.2750 F   0  0  0  0  0  0  0  0  0  0  0  0
  -19.1950   -1.1300   -0.7370 F   0  0  0  0  0  0  0  0  0  0  0  0
   -9.7920   -3.7475   -2.8656 C   0  0  0  0  0  0  0  0  0  0  0  0
  -10.0268   -1.9037   -4.2201 F   0  0  0  0  0  0  0  0  0  0  0  0
   -9.7674   -4.7763   -4.0487 C   0  0  0  0  0  0  0  0  0  0  0  0
  -10.8597   -4.8318   -4.9247 C   0  0  0  0  0  0  0  0  0  0  0  0
  1  2  2  0
  2  3  1  0
  2 16  1  0
  3  4  1  0
  3  6  2  0
  4  5  1  0
  6  7  1  0
  7 15  1  0
  7  8  1  0
 11 12  1  0
 12 28  1  0
 12 27  1  0
 12 26  1  0
 15 16  1  0
 15 25  2  0
 16 17  1  0
 17 18  1  0
 18 19  1  0
 18 29  1  0
 18 30  1  0
 29 31  1  0
 31 32  2  0
  8  9  2  0
  9 10  1  0
 10 11  2  0
 11 13  1  0
 13 14  2  0
 14  8  1  0
 19 20  2  0
 20 21  1  0
 21 22  2  0
 22 23  1  0
 23 24  2  0
 24 19  1  0
M  END

$$$$
No_216-gen_results_new/Mpro_new_generate_500/2024-01-19-21-58-56/
     RDKit          3D

 35 37  0  0  0  0  0  0  0  0999 V2000
   -9.1300   -2.9100    0.4520 O   0  0  0  0  0  0  0  0  0  0  0  0
  -10.2490   -2.6420    0.1800 C   0  0  0  0  0  0  0  0  0  0  0  0
  -11.3800   -3.0650    1.0860 C   0  0  0  0  0  0  0  0  0  0  0  0
  -11.2000   -3.8390    2.3880 C   0  0  0  0  0  0  0  0  0  0  0  0
  -10.9900   -5.0690    2.3420 N   0  0  0  0  0  0  0  0  0  0  0  0
  -12.7310   -2.7290    0.7330 N   0  0  0  0  0  0  0  0  0  0  0  0
  -12.9960   -1.9940   -0.4510 N   0  0  0  0  0  0  0  0  0  0  0  0
  -14.3580   -1.6940   -0.7530 C   0  0  0  0  0  0  0  0  0  0  0  0
  -15.0390   -0.7180   -0.0560 C   0  0  0  0  0  0  0  0  0  0  0  0
  -16.3510   -0.4690   -0.3980 C   0  0  0  0  0  0  0  0  0  0  0  0
  -16.9430   -1.2030   -1.4080 C   0  0  0  0  0  0  0  0  0  0  0  0
  -18.3840   -0.9560   -1.8060 C   0  0  0  0  0  0  0  0  0  0  0  0
  -16.2510   -2.1690   -2.1000 C   0  0  0  0  0  0  0  0  0  0  0  0
  -14.9490   -2.4160   -1.7590 C   0  0  0  0  0  0  0  0  0  0  0  0
  -11.9050   -1.5730   -1.3540 C   0  0  0  0  0  0  0  0  0  0  0  0
  -10.5280   -1.9050   -1.0240 N   0  0  0  0  0  0  0  0  0  0  0  0
   -9.4550   -1.4720   -1.9190 C   0  0  0  0  0  0  0  0  0  0  0  0
   -9.2820   -2.3940   -3.1270 C   0  0  0  0  0  0  0  0  0  0  0  0
   -7.8170   -2.5500   -3.5360 C   0  0  0  0  0  0  0  0  0  0  0  0
   -6.9720   -3.3210   -2.7550 C   0  0  0  0  0  0  0  0  0  0  0  0
   -5.6390   -3.4770   -3.1110 C   0  0  0  0  0  0  0  0  0  0  0  0
   -5.1940   -2.8390   -4.2640 C   0  0  0  0  0  0  0  0  0  0  0  0
   -6.0850   -2.0780   -5.0070 C   0  0  0  0  0  0  0  0  0  0  0  0
   -7.3470   -1.9600   -4.6270 N   0  0  0  0  0  0  0  0  0  0  0  0
  -12.1450   -0.9640   -2.3390 O   0  0  0  0  0  0  0  0  0  0  0  0
  -18.7610   -1.8760   -2.7390 F   0  0  0  0  0  0  0  0  0  0  0  0
  -18.4550    0.3250   -2.2750 F   0  0  0  0  0  0  0  0  0  0  0  0
  -19.1950   -1.1300   -0.7370 F   0  0  0  0  0  0  0  0  0  0  0  0
   -9.7920   -3.7475   -2.8656 C   0  0  0  0  0  0  0  0  0  0  0  0
  -10.0717   -1.8029   -4.3549 C   0  0  0  0  0  0  0  0  0  0  0  0
  -10.0419   -4.6597   -4.1091 C   0  0  0  0  0  0  0  0  0  0  0  0
   -9.7679   -6.0897   -3.9414 C   0  0  0  0  0  0  0  0  0  0  0  0
   -9.0494   -6.5970   -2.8069 C   0  0  0  0  0  0  0  0  0  0  0  0
   -8.1716   -6.6346   -2.2473 C   0  0  0  0  0  0  0  0  0  0  0  0
   -9.7782   -6.7037   -5.3184 C   0  0  0  0  0  0  0  0  0  0  0  0
  1  2  2  0
  2  3  1  0
  2 16  1  0
  3  4  1  0
  3  6  2  0
  4  5  1  0
  6  7  1  0
  7 15  1  0
  7  8  1  0
 11 12  1  0
 12 28  1  0
 12 27  1  0
 12 26  1  0
 15 16  1  0
 15 25  2  0
 16 17  1  0
 17 18  1  0
 18 19  1  0
 18 29  1  0
 18 30  1  0
 29 31  2  3
 31 32  1  0
 32 33  1  0
 33 34  3  0
 32 35  1  0
  8  9  2  0
  9 10  1  0
 10 11  2  0
 11 13  1  0
 13 14  2  0
 14  8  1  0
 19 20  2  0
 20 21  1  0
 21 22  2  0
 22 23  1  0
 23 24  2  0
 24 19  1  0
M  END

$$$$
No_217-gen_results_new/Mpro_new_generate_500/2024-01-19-21-58-56/
     RDKit          3D

 32 35  0  0  0  0  0  0  0  0999 V2000
   -9.1300   -2.9100    0.4520 O   0  0  0  0  0  0  0  0  0  0  0  0
  -10.2490   -2.6420    0.1800 C   0  0  0  0  0  0  0  0  0  0  0  0
  -11.3800   -3.0650    1.0860 C   0  0  0  0  0  0  0  0  0  0  0  0
  -11.2000   -3.8390    2.3880 C   0  0  0  0  0  0  0  0  0  0  0  0
  -10.9900   -5.0690    2.3420 N   0  0  0  0  0  0  0  0  0  0  0  0
  -12.7310   -2.7290    0.7330 N   0  0  0  0  0  0  0  0  0  0  0  0
  -12.9960   -1.9940   -0.4510 N   0  0  0  0  0  0  0  0  0  0  0  0
  -14.3580   -1.6940   -0.7530 C   0  0  0  0  0  0  0  0  0  0  0  0
  -15.0390   -0.7180   -0.0560 C   0  0  0  0  0  0  0  0  0  0  0  0
  -16.3510   -0.4690   -0.3980 C   0  0  0  0  0  0  0  0  0  0  0  0
  -16.9430   -1.2030   -1.4080 C   0  0  0  0  0  0  0  0  0  0  0  0
  -18.3840   -0.9560   -1.8060 C   0  0  0  0  0  0  0  0  0  0  0  0
  -16.2510   -2.1690   -2.1000 C   0  0  0  0  0  0  0  0  0  0  0  0
  -14.9490   -2.4160   -1.7590 C   0  0  0  0  0  0  0  0  0  0  0  0
  -11.9050   -1.5730   -1.3540 C   0  0  0  0  0  0  0  0  0  0  0  0
  -10.5280   -1.9050   -1.0240 N   0  0  0  0  0  0  0  0  0  0  0  0
   -9.4550   -1.4720   -1.9190 C   0  0  0  0  0  0  0  0  0  0  0  0
   -9.2820   -2.3940   -3.1270 C   0  0  0  0  0  0  0  0  0  0  0  0
   -7.8170   -2.5500   -3.5360 C   0  0  0  0  0  0  0  0  0  0  0  0
   -6.9720   -3.3210   -2.7550 C   0  0  0  0  0  0  0  0  0  0  0  0
   -5.6390   -3.4770   -3.1110 C   0  0  0  0  0  0  0  0  0  0  0  0
   -5.1940   -2.8390   -4.2640 C   0  0  0  0  0  0  0  0  0  0  0  0
   -6.0850   -2.0780   -5.0070 C   0  0  0  0  0  0  0  0  0  0  0  0
   -7.3470   -1.9600   -4.6270 N   0  0  0  0  0  0  0  0  0  0  0  0
  -12.1450   -0.9640   -2.3390 O   0  0  0  0  0  0  0  0  0  0  0  0
  -18.7610   -1.8760   -2.7390 F   0  0  0  0  0  0  0  0  0  0  0  0
  -18.4550    0.3250   -2.2750 F   0  0  0  0  0  0  0  0  0  0  0  0
  -19.1950   -1.1300   -0.7370 F   0  0  0  0  0  0  0  0  0  0  0  0
  -10.1467   -3.0903   -3.8357 C   0  0  0  0  0  0  0  0  0  0  0  0
  -10.1748   -2.6832   -3.5186 O   0  0  0  0  0  0  0  0  0  0  0  0
  -10.7471   -2.9983   -4.5745 C   0  0  0  0  0  0  0  0  0  0  0  0
  -10.5504   -3.6142   -3.7226 C   0  0  0  0  0  0  0  0  0  0  0  0
  1  2  2  0
  2  3  1  0
  2 16  1  0
  3  4  1  0
  3  6  2  0
  4  5  1  0
  6  7  1  0
  7 15  1  0
  7  8  1  0
 11 12  1  0
 12 28  1  0
 12 27  1  0
 12 26  1  0
 15 16  1  0
 15 25  2  0
 16 17  1  0
 17 18  1  0
 18 19  1  0
 18 29  1  0
 29 30  1  0
 29 31  1  0
 30 32  1  0
 31 32  1  0
  8  9  2  0
  9 10  1  0
 10 11  2  0
 11 13  1  0
 13 14  2  0
 14  8  1  0
 19 20  2  0
 20 21  1  0
 21 22  2  0
 22 23  1  0
 23 24  2  0
 24 19  1  0
M  END

$$$$
No_218-gen_results_new/Mpro_new_generate_500/2024-01-19-21-58-56/
     RDKit          3D

 35 37  0  0  0  0  0  0  0  0999 V2000
   -9.1300   -2.9100    0.4520 O   0  0  0  0  0  0  0  0  0  0  0  0
  -10.2490   -2.6420    0.1800 C   0  0  0  0  0  0  0  0  0  0  0  0
  -11.3800   -3.0650    1.0860 C   0  0  0  0  0  0  0  0  0  0  0  0
  -11.2000   -3.8390    2.3880 C   0  0  0  0  0  0  0  0  0  0  0  0
  -10.9900   -5.0690    2.3420 N   0  0  0  0  0  0  0  0  0  0  0  0
  -12.7310   -2.7290    0.7330 N   0  0  0  0  0  0  0  0  0  0  0  0
  -12.9960   -1.9940   -0.4510 N   0  0  0  0  0  0  0  0  0  0  0  0
  -14.3580   -1.6940   -0.7530 C   0  0  0  0  0  0  0  0  0  0  0  0
  -15.0390   -0.7180   -0.0560 C   0  0  0  0  0  0  0  0  0  0  0  0
  -16.3510   -0.4690   -0.3980 C   0  0  0  0  0  0  0  0  0  0  0  0
  -16.9430   -1.2030   -1.4080 C   0  0  0  0  0  0  0  0  0  0  0  0
  -18.3840   -0.9560   -1.8060 C   0  0  0  0  0  0  0  0  0  0  0  0
  -16.2510   -2.1690   -2.1000 C   0  0  0  0  0  0  0  0  0  0  0  0
  -14.9490   -2.4160   -1.7590 C   0  0  0  0  0  0  0  0  0  0  0  0
  -11.9050   -1.5730   -1.3540 C   0  0  0  0  0  0  0  0  0  0  0  0
  -10.5280   -1.9050   -1.0240 N   0  0  0  0  0  0  0  0  0  0  0  0
   -9.4550   -1.4720   -1.9190 C   0  0  0  0  0  0  0  0  0  0  0  0
   -9.2820   -2.3940   -3.1270 C   0  0  0  0  0  0  0  0  0  0  0  0
   -7.8170   -2.5500   -3.5360 C   0  0  0  0  0  0  0  0  0  0  0  0
   -6.9720   -3.3210   -2.7550 C   0  0  0  0  0  0  0  0  0  0  0  0
   -5.6390   -3.4770   -3.1110 C   0  0  0  0  0  0  0  0  0  0  0  0
   -5.1940   -2.8390   -4.2640 C   0  0  0  0  0  0  0  0  0  0  0  0
   -6.0850   -2.0780   -5.0070 C   0  0  0  0  0  0  0  0  0  0  0  0
   -7.3470   -1.9600   -4.6270 N   0  0  0  0  0  0  0  0  0  0  0  0
  -12.1450   -0.9640   -2.3390 O   0  0  0  0  0  0  0  0  0  0  0  0
  -18.7610   -1.8760   -2.7390 F   0  0  0  0  0  0  0  0  0  0  0  0
  -18.4550    0.3250   -2.2750 F   0  0  0  0  0  0  0  0  0  0  0  0
  -19.1950   -1.1300   -0.7370 F   0  0  0  0  0  0  0  0  0  0  0  0
   -9.7920   -3.7475   -2.8656 C   0  0  0  0  0  0  0  0  0  0  0  0
  -10.0717   -1.8029   -4.3549 C   0  0  0  0  0  0  0  0  0  0  0  0
  -10.0419   -4.6597   -4.1091 C   0  0  0  0  0  0  0  0  0  0  0  0
  -11.5069   -4.7544   -4.4405 C   0  0  0  0  0  0  0  0  0  0  0  0
  -12.4300   -4.9001   -3.6354 O   0  0  0  0  0  0  0  0  0  0  0  0
  -11.8707   -4.9707   -5.7151 O   0  0  0  0  0  0  0  0  0  0  0  0
  -10.8882   -5.6662   -6.6313 C   0  0  0  0  0  0  0  0  0  0  0  0
  1  2  2  0
  2  3  1  0
  2 16  1  0
  3  4  1  0
  3  6  2  0
  4  5  1  0
  6  7  1  0
  7 15  1  0
  7  8  1  0
 11 12  1  0
 12 28  1  0
 12 27  1  0
 12 26  1  0
 15 16  1  0
 15 25  2  0
 16 17  1  0
 17 18  1  0
 18 19  1  0
 18 29  1  0
 18 30  1  0
 29 31  1  0
 31 32  1  0
 32 33  2  0
 32 34  1  0
 34 35  1  0
  8  9  2  0
  9 10  1  0
 10 11  2  0
 11 13  1  0
 13 14  2  0
 14  8  1  0
 19 20  2  0
 20 21  1  0
 21 22  2  0
 22 23  1  0
 23 24  2  0
 24 19  1  0
M  END

$$$$
No_219-gen_results_new/Mpro_new_generate_500/2024-01-19-21-58-56/
     RDKit          3D

 32 34  0  0  0  0  0  0  0  0999 V2000
   -9.1300   -2.9100    0.4520 O   0  0  0  0  0  0  0  0  0  0  0  0
  -10.2490   -2.6420    0.1800 C   0  0  0  0  0  0  0  0  0  0  0  0
  -11.3800   -3.0650    1.0860 C   0  0  0  0  0  0  0  0  0  0  0  0
  -11.2000   -3.8390    2.3880 C   0  0  0  0  0  0  0  0  0  0  0  0
  -10.9900   -5.0690    2.3420 N   0  0  0  0  0  0  0  0  0  0  0  0
  -12.7310   -2.7290    0.7330 N   0  0  0  0  0  0  0  0  0  0  0  0
  -12.9960   -1.9940   -0.4510 N   0  0  0  0  0  0  0  0  0  0  0  0
  -14.3580   -1.6940   -0.7530 C   0  0  0  0  0  0  0  0  0  0  0  0
  -15.0390   -0.7180   -0.0560 C   0  0  0  0  0  0  0  0  0  0  0  0
  -16.3510   -0.4690   -0.3980 C   0  0  0  0  0  0  0  0  0  0  0  0
  -16.9430   -1.2030   -1.4080 C   0  0  0  0  0  0  0  0  0  0  0  0
  -18.3840   -0.9560   -1.8060 C   0  0  0  0  0  0  0  0  0  0  0  0
  -16.2510   -2.1690   -2.1000 C   0  0  0  0  0  0  0  0  0  0  0  0
  -14.9490   -2.4160   -1.7590 C   0  0  0  0  0  0  0  0  0  0  0  0
  -11.9050   -1.5730   -1.3540 C   0  0  0  0  0  0  0  0  0  0  0  0
  -10.5280   -1.9050   -1.0240 N   0  0  0  0  0  0  0  0  0  0  0  0
   -9.4550   -1.4720   -1.9190 C   0  0  0  0  0  0  0  0  0  0  0  0
   -9.2820   -2.3940   -3.1270 C   0  0  0  0  0  0  0  0  0  0  0  0
   -7.8170   -2.5500   -3.5360 C   0  0  0  0  0  0  0  0  0  0  0  0
   -6.9720   -3.3210   -2.7550 C   0  0  0  0  0  0  0  0  0  0  0  0
   -5.6390   -3.4770   -3.1110 C   0  0  0  0  0  0  0  0  0  0  0  0
   -5.1940   -2.8390   -4.2640 C   0  0  0  0  0  0  0  0  0  0  0  0
   -6.0850   -2.0780   -5.0070 C   0  0  0  0  0  0  0  0  0  0  0  0
   -7.3470   -1.9600   -4.6270 N   0  0  0  0  0  0  0  0  0  0  0  0
  -12.1450   -0.9640   -2.3390 O   0  0  0  0  0  0  0  0  0  0  0  0
  -18.7610   -1.8760   -2.7390 F   0  0  0  0  0  0  0  0  0  0  0  0
  -18.4550    0.3250   -2.2750 F   0  0  0  0  0  0  0  0  0  0  0  0
  -19.1950   -1.1300   -0.7370 F   0  0  0  0  0  0  0  0  0  0  0  0
  -10.0453   -2.0069   -4.3181 C   0  0  0  0  0  0  0  0  0  0  0  0
   -9.8476   -3.8948   -2.8015 C   0  0  0  0  0  0  0  0  0  0  0  0
  -10.3451   -4.7154   -4.2851 S   0  0  0  0  0  0  0  0  0  0  0  0
  -10.9356   -5.5968   -4.6016 S   0  0  0  0  0  0  0  0  0  0  0  0
  1  2  2  0
  2  3  1  0
  2 16  1  0
  3  4  1  0
  3  6  2  0
  4  5  1  0
  6  7  1  0
  7 15  1  0
  7  8  1  0
 11 12  1  0
 12 28  1  0
 12 27  1  0
 12 26  1  0
 15 16  1  0
 15 25  2  0
 16 17  1  0
 17 18  1  0
 18 19  1  0
 18 29  1  0
 18 30  1  0
 30 31  1  0
 31 32  2  0
  8  9  2  0
  9 10  1  0
 10 11  2  0
 11 13  1  0
 13 14  2  0
 14  8  1  0
 19 20  2  0
 20 21  1  0
 21 22  2  0
 22 23  1  0
 23 24  2  0
 24 19  1  0
M  END

$$$$
No_220-gen_results_new/Mpro_new_generate_500/2024-01-19-21-58-56/
     RDKit          3D

 32 34  0  0  0  0  0  0  0  0999 V2000
   -9.1300   -2.9100    0.4520 O   0  0  0  0  0  0  0  0  0  0  0  0
  -10.2490   -2.6420    0.1800 C   0  0  0  0  0  0  0  0  0  0  0  0
  -11.3800   -3.0650    1.0860 C   0  0  0  0  0  0  0  0  0  0  0  0
  -11.2000   -3.8390    2.3880 C   0  0  0  0  0  0  0  0  0  0  0  0
  -10.9900   -5.0690    2.3420 N   0  0  0  0  0  0  0  0  0  0  0  0
  -12.7310   -2.7290    0.7330 N   0  0  0  0  0  0  0  0  0  0  0  0
  -12.9960   -1.9940   -0.4510 N   0  0  0  0  0  0  0  0  0  0  0  0
  -14.3580   -1.6940   -0.7530 C   0  0  0  0  0  0  0  0  0  0  0  0
  -15.0390   -0.7180   -0.0560 C   0  0  0  0  0  0  0  0  0  0  0  0
  -16.3510   -0.4690   -0.3980 C   0  0  0  0  0  0  0  0  0  0  0  0
  -16.9430   -1.2030   -1.4080 C   0  0  0  0  0  0  0  0  0  0  0  0
  -18.3840   -0.9560   -1.8060 C   0  0  0  0  0  0  0  0  0  0  0  0
  -16.2510   -2.1690   -2.1000 C   0  0  0  0  0  0  0  0  0  0  0  0
  -14.9490   -2.4160   -1.7590 C   0  0  0  0  0  0  0  0  0  0  0  0
  -11.9050   -1.5730   -1.3540 C   0  0  0  0  0  0  0  0  0  0  0  0
  -10.5280   -1.9050   -1.0240 N   0  0  0  0  0  0  0  0  0  0  0  0
   -9.4550   -1.4720   -1.9190 C   0  0  0  0  0  0  0  0  0  0  0  0
   -9.2820   -2.3940   -3.1270 C   0  0  0  0  0  0  0  0  0  0  0  0
   -7.8170   -2.5500   -3.5360 C   0  0  0  0  0  0  0  0  0  0  0  0
   -6.9720   -3.3210   -2.7550 C   0  0  0  0  0  0  0  0  0  0  0  0
   -5.6390   -3.4770   -3.1110 C   0  0  0  0  0  0  0  0  0  0  0  0
   -5.1940   -2.8390   -4.2640 C   0  0  0  0  0  0  0  0  0  0  0  0
   -6.0850   -2.0780   -5.0070 C   0  0  0  0  0  0  0  0  0  0  0  0
   -7.3470   -1.9600   -4.6270 N   0  0  0  0  0  0  0  0  0  0  0  0
  -12.1450   -0.9640   -2.3390 O   0  0  0  0  0  0  0  0  0  0  0  0
  -18.7610   -1.8760   -2.7390 F   0  0  0  0  0  0  0  0  0  0  0  0
  -18.4550    0.3250   -2.2750 F   0  0  0  0  0  0  0  0  0  0  0  0
  -19.1950   -1.1300   -0.7370 F   0  0  0  0  0  0  0  0  0  0  0  0
   -9.6560   -3.6380   -2.7665 F   0  0  0  0  0  0  0  0  0  0  0  0
  -10.0620   -2.3315   -4.0648 F   0  0  0  0  0  0  0  0  0  0  0  0
  -16.8841   -3.3105   -3.3810 S   0  0  0  0  0  0  0  0  0  0  0  0
  -16.6602   -4.9068   -2.5815 C   0  0  0  0  0  0  0  0  0  0  0  0
  1  2  2  0
  2  3  1  0
  2 16  1  0
  3  4  1  0
  3  6  2  0
  4  5  1  0
  6  7  1  0
  7 15  1  0
  7  8  1  0
 11 12  1  0
 12 28  1  0
 12 27  1  0
 12 26  1  0
 15 16  1  0
 15 25  2  0
 16 17  1  0
 17 18  1  0
 18 19  1  0
 18 29  1  0
 18 30  1  0
 13 31  1  0
 31 32  1  0
  8  9  2  0
  9 10  1  0
 10 11  2  0
 11 13  1  0
 13 14  2  0
 14  8  1  0
 19 20  2  0
 20 21  1  0
 21 22  2  0
 22 23  1  0
 23 24  2  0
 24 19  1  0
M  END

$$$$
No_221-gen_results_new/Mpro_new_generate_500/2024-01-19-21-58-56/
     RDKit          3D

 35 38  0  0  0  0  0  0  0  0999 V2000
   -9.1300   -2.9100    0.4520 O   0  0  0  0  0  0  0  0  0  0  0  0
  -10.2490   -2.6420    0.1800 C   0  0  0  0  0  0  0  0  0  0  0  0
  -11.3800   -3.0650    1.0860 C   0  0  0  0  0  0  0  0  0  0  0  0
  -11.2000   -3.8390    2.3880 C   0  0  0  0  0  0  0  0  0  0  0  0
  -10.9900   -5.0690    2.3420 N   0  0  0  0  0  0  0  0  0  0  0  0
  -12.7310   -2.7290    0.7330 N   0  0  0  0  0  0  0  0  0  0  0  0
  -12.9960   -1.9940   -0.4510 N   0  0  0  0  0  0  0  0  0  0  0  0
  -14.3580   -1.6940   -0.7530 C   0  0  0  0  0  0  0  0  0  0  0  0
  -15.0390   -0.7180   -0.0560 C   0  0  0  0  0  0  0  0  0  0  0  0
  -16.3510   -0.4690   -0.3980 C   0  0  0  0  0  0  0  0  0  0  0  0
  -16.9430   -1.2030   -1.4080 C   0  0  0  0  0  0  0  0  0  0  0  0
  -18.3840   -0.9560   -1.8060 C   0  0  0  0  0  0  0  0  0  0  0  0
  -16.2510   -2.1690   -2.1000 C   0  0  0  0  0  0  0  0  0  0  0  0
  -14.9490   -2.4160   -1.7590 C   0  0  0  0  0  0  0  0  0  0  0  0
  -11.9050   -1.5730   -1.3540 C   0  0  0  0  0  0  0  0  0  0  0  0
  -10.5280   -1.9050   -1.0240 N   0  0  0  0  0  0  0  0  0  0  0  0
   -9.4550   -1.4720   -1.9190 C   0  0  0  0  0  0  0  0  0  0  0  0
   -9.2820   -2.3940   -3.1270 C   0  0  0  0  0  0  0  0  0  0  0  0
   -7.8170   -2.5500   -3.5360 C   0  0  0  0  0  0  0  0  0  0  0  0
   -6.9720   -3.3210   -2.7550 C   0  0  0  0  0  0  0  0  0  0  0  0
   -5.6390   -3.4770   -3.1110 C   0  0  0  0  0  0  0  0  0  0  0  0
   -5.1940   -2.8390   -4.2640 C   0  0  0  0  0  0  0  0  0  0  0  0
   -6.0850   -2.0780   -5.0070 C   0  0  0  0  0  0  0  0  0  0  0  0
   -7.3470   -1.9600   -4.6270 N   0  0  0  0  0  0  0  0  0  0  0  0
  -12.1450   -0.9640   -2.3390 O   0  0  0  0  0  0  0  0  0  0  0  0
  -18.7610   -1.8760   -2.7390 F   0  0  0  0  0  0  0  0  0  0  0  0
  -18.4550    0.3250   -2.2750 F   0  0  0  0  0  0  0  0  0  0  0  0
  -19.1950   -1.1300   -0.7370 F   0  0  0  0  0  0  0  0  0  0  0  0
   -9.9592   -1.9070   -4.1913 F   0  0  0  0  0  0  0  0  0  0  0  0
   -9.8855   -3.8565   -2.8874 C   0  0  0  0  0  0  0  0  0  0  0  0
  -10.9944   -3.8388   -3.4902 O   0  0  0  0  0  0  0  0  0  0  0  0
   -9.8724   -4.6300   -1.7643 C   0  0  0  0  0  0  0  0  0  0  0  0
  -11.6204   -5.1902   -3.2209 C   0  0  0  0  0  0  0  0  0  0  0  0
  -10.9882   -5.4538   -2.0644 C   0  0  0  0  0  0  0  0  0  0  0  0
   -9.1422   -4.6212   -3.9406 C   0  0  0  0  0  0  0  0  0  0  0  0
  1  2  2  0
  2  3  1  0
  2 16  1  0
  3  4  1  0
  3  6  2  0
  4  5  1  0
  6  7  1  0
  7 15  1  0
  7  8  1  0
 11 12  1  0
 12 28  1  0
 12 27  1  0
 12 26  1  0
 15 16  1  0
 15 25  2  0
 16 17  1  0
 17 18  1  0
 18 19  1  0
 18 29  1  0
 18 30  1  0
 30 31  1  0
 30 32  1  0
 31 33  1  0
 32 34  1  0
 33 34  2  0
 30 35  1  0
  8  9  2  0
  9 10  1  0
 10 11  2  0
 11 13  1  0
 13 14  2  0
 14  8  1  0
 19 20  2  0
 20 21  1  0
 21 22  2  0
 22 23  1  0
 23 24  2  0
 24 19  1  0
M  END

$$$$
No_222-gen_results_new/Mpro_new_generate_500/2024-01-19-21-58-56/
     RDKit          3D

 35 38  0  0  0  0  0  0  0  0999 V2000
   -9.1300   -2.9100    0.4520 O   0  0  0  0  0  0  0  0  0  0  0  0
  -10.2490   -2.6420    0.1800 C   0  0  0  0  0  0  0  0  0  0  0  0
  -11.3800   -3.0650    1.0860 C   0  0  0  0  0  0  0  0  0  0  0  0
  -11.2000   -3.8390    2.3880 C   0  0  0  0  0  0  0  0  0  0  0  0
  -10.9900   -5.0690    2.3420 N   0  0  0  0  0  0  0  0  0  0  0  0
  -12.7310   -2.7290    0.7330 N   0  0  0  0  0  0  0  0  0  0  0  0
  -12.9960   -1.9940   -0.4510 N   0  0  0  0  0  0  0  0  0  0  0  0
  -14.3580   -1.6940   -0.7530 C   0  0  0  0  0  0  0  0  0  0  0  0
  -15.0390   -0.7180   -0.0560 C   0  0  0  0  0  0  0  0  0  0  0  0
  -16.3510   -0.4690   -0.3980 C   0  0  0  0  0  0  0  0  0  0  0  0
  -16.9430   -1.2030   -1.4080 C   0  0  0  0  0  0  0  0  0  0  0  0
  -18.3840   -0.9560   -1.8060 C   0  0  0  0  0  0  0  0  0  0  0  0
  -16.2510   -2.1690   -2.1000 C   0  0  0  0  0  0  0  0  0  0  0  0
  -14.9490   -2.4160   -1.7590 C   0  0  0  0  0  0  0  0  0  0  0  0
  -11.9050   -1.5730   -1.3540 C   0  0  0  0  0  0  0  0  0  0  0  0
  -10.5280   -1.9050   -1.0240 N   0  0  0  0  0  0  0  0  0  0  0  0
   -9.4550   -1.4720   -1.9190 C   0  0  0  0  0  0  0  0  0  0  0  0
   -9.2820   -2.3940   -3.1270 C   0  0  0  0  0  0  0  0  0  0  0  0
   -7.8170   -2.5500   -3.5360 C   0  0  0  0  0  0  0  0  0  0  0  0
   -6.9720   -3.3210   -2.7550 C   0  0  0  0  0  0  0  0  0  0  0  0
   -5.6390   -3.4770   -3.1110 C   0  0  0  0  0  0  0  0  0  0  0  0
   -5.1940   -2.8390   -4.2640 C   0  0  0  0  0  0  0  0  0  0  0  0
   -6.0850   -2.0780   -5.0070 C   0  0  0  0  0  0  0  0  0  0  0  0
   -7.3470   -1.9600   -4.6270 N   0  0  0  0  0  0  0  0  0  0  0  0
  -12.1450   -0.9640   -2.3390 O   0  0  0  0  0  0  0  0  0  0  0  0
  -18.7610   -1.8760   -2.7390 F   0  0  0  0  0  0  0  0  0  0  0  0
  -18.4550    0.3250   -2.2750 F   0  0  0  0  0  0  0  0  0  0  0  0
  -19.1950   -1.1300   -0.7370 F   0  0  0  0  0  0  0  0  0  0  0  0
  -10.0453   -2.0069   -4.3181 C   0  0  0  0  0  0  0  0  0  0  0  0
   -9.8476   -3.8948   -2.8015 C   0  0  0  0  0  0  0  0  0  0  0  0
  -10.1714   -4.7331   -3.9309 C   0  0  0  0  0  0  0  0  0  0  0  0
  -10.1706   -6.0308   -3.5979 O   0  0  0  0  0  0  0  0  0  0  0  0
   -9.4459   -6.4041   -2.5012 C   0  0  0  0  0  0  0  0  0  0  0  0
   -9.4606   -5.2902   -1.7276 O   0  0  0  0  0  0  0  0  0  0  0  0
   -9.1146   -7.4026   -1.9144 O   0  0  0  0  0  0  0  0  0  0  0  0
  1  2  2  0
  2  3  1  0
  2 16  1  0
  3  4  1  0
  3  6  2  0
  4  5  1  0
  6  7  1  0
  7 15  1  0
  7  8  1  0
 11 12  1  0
 12 28  1  0
 12 27  1  0
 12 26  1  0
 15 16  1  0
 15 25  2  0
 16 17  1  0
 17 18  1  0
 18 19  1  0
 18 29  1  0
 18 30  1  0
 30 31  2  0
 31 32  1  0
 32 33  1  0
 30 34  1  0
 33 34  1  0
 33 35  2  0
  8  9  2  0
  9 10  1  0
 10 11  2  0
 11 13  1  0
 13 14  2  0
 14  8  1  0
 19 20  2  0
 20 21  1  0
 21 22  2  0
 22 23  1  0
 23 24  2  0
 24 19  1  0
M  END

$$$$
No_223-gen_results_new/Mpro_new_generate_500/2024-01-19-21-58-56/
     RDKit          3D

 31 33  0  0  0  0  0  0  0  0999 V2000
   -9.1300   -2.9100    0.4520 O   0  0  0  0  0  0  0  0  0  0  0  0
  -10.2490   -2.6420    0.1800 C   0  0  0  0  0  0  0  0  0  0  0  0
  -11.3800   -3.0650    1.0860 C   0  0  0  0  0  0  0  0  0  0  0  0
  -11.2000   -3.8390    2.3880 C   0  0  0  0  0  0  0  0  0  0  0  0
  -10.9900   -5.0690    2.3420 N   0  0  0  0  0  0  0  0  0  0  0  0
  -12.7310   -2.7290    0.7330 N   0  0  0  0  0  0  0  0  0  0  0  0
  -12.9960   -1.9940   -0.4510 N   0  0  0  0  0  0  0  0  0  0  0  0
  -14.3580   -1.6940   -0.7530 C   0  0  0  0  0  0  0  0  0  0  0  0
  -15.0390   -0.7180   -0.0560 C   0  0  0  0  0  0  0  0  0  0  0  0
  -16.3510   -0.4690   -0.3980 C   0  0  0  0  0  0  0  0  0  0  0  0
  -16.9430   -1.2030   -1.4080 C   0  0  0  0  0  0  0  0  0  0  0  0
  -18.3840   -0.9560   -1.8060 C   0  0  0  0  0  0  0  0  0  0  0  0
  -16.2510   -2.1690   -2.1000 C   0  0  0  0  0  0  0  0  0  0  0  0
  -14.9490   -2.4160   -1.7590 C   0  0  0  0  0  0  0  0  0  0  0  0
  -11.9050   -1.5730   -1.3540 C   0  0  0  0  0  0  0  0  0  0  0  0
  -10.5280   -1.9050   -1.0240 N   0  0  0  0  0  0  0  0  0  0  0  0
   -9.4550   -1.4720   -1.9190 C   0  0  0  0  0  0  0  0  0  0  0  0
   -9.2820   -2.3940   -3.1270 C   0  0  0  0  0  0  0  0  0  0  0  0
   -7.8170   -2.5500   -3.5360 C   0  0  0  0  0  0  0  0  0  0  0  0
   -6.9720   -3.3210   -2.7550 C   0  0  0  0  0  0  0  0  0  0  0  0
   -5.6390   -3.4770   -3.1110 C   0  0  0  0  0  0  0  0  0  0  0  0
   -5.1940   -2.8390   -4.2640 C   0  0  0  0  0  0  0  0  0  0  0  0
   -6.0850   -2.0780   -5.0070 C   0  0  0  0  0  0  0  0  0  0  0  0
   -7.3470   -1.9600   -4.6270 N   0  0  0  0  0  0  0  0  0  0  0  0
  -12.1450   -0.9640   -2.3390 O   0  0  0  0  0  0  0  0  0  0  0  0
  -18.7610   -1.8760   -2.7390 F   0  0  0  0  0  0  0  0  0  0  0  0
  -18.4550    0.3250   -2.2750 F   0  0  0  0  0  0  0  0  0  0  0  0
  -19.1950   -1.1300   -0.7370 F   0  0  0  0  0  0  0  0  0  0  0  0
  -10.1467   -3.0903   -3.8357 C   0  0  0  0  0  0  0  0  0  0  0  0
  -10.1681   -2.5855   -3.6007 C   0  0  0  0  0  0  0  0  0  0  0  0
  -11.2324   -2.1698   -4.6133 C   0  0  0  0  0  0  0  0  0  0  0  0
  1  2  2  0
  2  3  1  0
  2 16  1  0
  3  4  1  0
  3  6  2  0
  4  5  1  0
  6  7  1  0
  7 15  1  0
  7  8  1  0
 11 12  1  0
 12 28  1  0
 12 27  1  0
 12 26  1  0
 15 16  1  0
 15 25  2  0
 16 17  1  0
 17 18  1  0
 18 19  1  0
 18 29  1  0
 29 30  1  0
 29 31  1  0
  8  9  2  0
  9 10  1  0
 10 11  2  0
 11 13  1  0
 13 14  2  0
 14  8  1  0
 19 20  2  0
 20 21  1  0
 21 22  2  0
 22 23  1  0
 23 24  2  0
 24 19  1  0
M  END

$$$$
No_224-gen_results_new/Mpro_new_generate_500/2024-01-19-21-58-56/
     RDKit          3D

 34 37  0  0  0  0  0  0  0  0999 V2000
   -9.1300   -2.9100    0.4520 O   0  0  0  0  0  0  0  0  0  0  0  0
  -10.2490   -2.6420    0.1800 C   0  0  0  0  0  0  0  0  0  0  0  0
  -11.3800   -3.0650    1.0860 C   0  0  0  0  0  0  0  0  0  0  0  0
  -11.2000   -3.8390    2.3880 C   0  0  0  0  0  0  0  0  0  0  0  0
  -10.9900   -5.0690    2.3420 N   0  0  0  0  0  0  0  0  0  0  0  0
  -12.7310   -2.7290    0.7330 N   0  0  0  0  0  0  0  0  0  0  0  0
  -12.9960   -1.9940   -0.4510 N   0  0  0  0  0  0  0  0  0  0  0  0
  -14.3580   -1.6940   -0.7530 C   0  0  0  0  0  0  0  0  0  0  0  0
  -15.0390   -0.7180   -0.0560 C   0  0  0  0  0  0  0  0  0  0  0  0
  -16.3510   -0.4690   -0.3980 C   0  0  0  0  0  0  0  0  0  0  0  0
  -16.9430   -1.2030   -1.4080 C   0  0  0  0  0  0  0  0  0  0  0  0
  -18.3840   -0.9560   -1.8060 C   0  0  0  0  0  0  0  0  0  0  0  0
  -16.2510   -2.1690   -2.1000 C   0  0  0  0  0  0  0  0  0  0  0  0
  -14.9490   -2.4160   -1.7590 C   0  0  0  0  0  0  0  0  0  0  0  0
  -11.9050   -1.5730   -1.3540 C   0  0  0  0  0  0  0  0  0  0  0  0
  -10.5280   -1.9050   -1.0240 N   0  0  0  0  0  0  0  0  0  0  0  0
   -9.4550   -1.4720   -1.9190 C   0  0  0  0  0  0  0  0  0  0  0  0
   -9.2820   -2.3940   -3.1270 C   0  0  0  0  0  0  0  0  0  0  0  0
   -7.8170   -2.5500   -3.5360 C   0  0  0  0  0  0  0  0  0  0  0  0
   -6.9720   -3.3210   -2.7550 C   0  0  0  0  0  0  0  0  0  0  0  0
   -5.6390   -3.4770   -3.1110 C   0  0  0  0  0  0  0  0  0  0  0  0
   -5.1940   -2.8390   -4.2640 C   0  0  0  0  0  0  0  0  0  0  0  0
   -6.0850   -2.0780   -5.0070 C   0  0  0  0  0  0  0  0  0  0  0  0
   -7.3470   -1.9600   -4.6270 N   0  0  0  0  0  0  0  0  0  0  0  0
  -12.1450   -0.9640   -2.3390 O   0  0  0  0  0  0  0  0  0  0  0  0
  -18.7610   -1.8760   -2.7390 F   0  0  0  0  0  0  0  0  0  0  0  0
  -18.4550    0.3250   -2.2750 F   0  0  0  0  0  0  0  0  0  0  0  0
  -19.1950   -1.1300   -0.7370 F   0  0  0  0  0  0  0  0  0  0  0  0
  -10.0453   -2.0069   -4.3181 C   0  0  0  0  0  0  0  0  0  0  0  0
   -9.8903   -3.8143   -2.9484 C   0  0  0  0  0  0  0  0  0  0  0  0
  -10.8021   -4.2389   -3.8324 C   0  0  0  0  0  0  0  0  0  0  0  0
  -11.8640   -5.6449   -3.6808 Cl  0  0  0  0  0  0  0  0  0  0  0  0
  -11.1100   -3.1074   -4.6395 O   0  0  0  0  0  0  0  0  0  0  0  0
  -10.0880   -0.9857   -4.9777 O   0  0  0  0  0  0  0  0  0  0  0  0
  1  2  2  0
  2  3  1  0
  2 16  1  0
  3  4  1  0
  3  6  2  0
  4  5  1  0
  6  7  1  0
  7 15  1  0
  7  8  1  0
 11 12  1  0
 12 28  1  0
 12 27  1  0
 12 26  1  0
 15 16  1  0
 15 25  2  0
 16 17  1  0
 17 18  1  0
 18 19  1  0
 18 29  1  0
 18 30  1  0
 30 31  2  0
 31 32  1  0
 29 33  1  0
 31 33  1  0
 29 34  2  0
  8  9  2  0
  9 10  1  0
 10 11  2  0
 11 13  1  0
 13 14  2  0
 14  8  1  0
 19 20  2  0
 20 21  1  0
 21 22  2  0
 22 23  1  0
 23 24  2  0
 24 19  1  0
M  END

$$$$
No_225-gen_results_new/Mpro_new_generate_500/2024-01-19-21-58-56/
     RDKit          3D

 33 35  0  0  0  0  0  0  0  0999 V2000
   -9.1300   -2.9100    0.4520 O   0  0  0  0  0  0  0  0  0  0  0  0
  -10.2490   -2.6420    0.1800 C   0  0  0  0  0  0  0  0  0  0  0  0
  -11.3800   -3.0650    1.0860 C   0  0  0  0  0  0  0  0  0  0  0  0
  -11.2000   -3.8390    2.3880 C   0  0  0  0  0  0  0  0  0  0  0  0
  -10.9900   -5.0690    2.3420 N   0  0  0  0  0  0  0  0  0  0  0  0
  -12.7310   -2.7290    0.7330 N   0  0  0  0  0  0  0  0  0  0  0  0
  -12.9960   -1.9940   -0.4510 N   0  0  0  0  0  0  0  0  0  0  0  0
  -14.3580   -1.6940   -0.7530 C   0  0  0  0  0  0  0  0  0  0  0  0
  -15.0390   -0.7180   -0.0560 C   0  0  0  0  0  0  0  0  0  0  0  0
  -16.3510   -0.4690   -0.3980 C   0  0  0  0  0  0  0  0  0  0  0  0
  -16.9430   -1.2030   -1.4080 C   0  0  0  0  0  0  0  0  0  0  0  0
  -18.3840   -0.9560   -1.8060 C   0  0  0  0  0  0  0  0  0  0  0  0
  -16.2510   -2.1690   -2.1000 C   0  0  0  0  0  0  0  0  0  0  0  0
  -14.9490   -2.4160   -1.7590 C   0  0  0  0  0  0  0  0  0  0  0  0
  -11.9050   -1.5730   -1.3540 C   0  0  0  0  0  0  0  0  0  0  0  0
  -10.5280   -1.9050   -1.0240 N   0  0  0  0  0  0  0  0  0  0  0  0
   -9.4550   -1.4720   -1.9190 C   0  0  0  0  0  0  0  0  0  0  0  0
   -9.2820   -2.3940   -3.1270 C   0  0  0  0  0  0  0  0  0  0  0  0
   -7.8170   -2.5500   -3.5360 C   0  0  0  0  0  0  0  0  0  0  0  0
   -6.9720   -3.3210   -2.7550 C   0  0  0  0  0  0  0  0  0  0  0  0
   -5.6390   -3.4770   -3.1110 C   0  0  0  0  0  0  0  0  0  0  0  0
   -5.1940   -2.8390   -4.2640 C   0  0  0  0  0  0  0  0  0  0  0  0
   -6.0850   -2.0780   -5.0070 C   0  0  0  0  0  0  0  0  0  0  0  0
   -7.3470   -1.9600   -4.6270 N   0  0  0  0  0  0  0  0  0  0  0  0
  -12.1450   -0.9640   -2.3390 O   0  0  0  0  0  0  0  0  0  0  0  0
  -18.7610   -1.8760   -2.7390 F   0  0  0  0  0  0  0  0  0  0  0  0
  -18.4550    0.3250   -2.2750 F   0  0  0  0  0  0  0  0  0  0  0  0
  -19.1950   -1.1300   -0.7370 F   0  0  0  0  0  0  0  0  0  0  0  0
  -10.1467   -3.0903   -3.8357 C   0  0  0  0  0  0  0  0  0  0  0  0
  -10.1681   -2.5855   -3.6007 C   0  0  0  0  0  0  0  0  0  0  0  0
  -10.4499   -1.5957   -4.9129 C   0  0  0  0  0  0  0  0  0  0  0  0
  -11.0814   -3.7032   -3.8773 C   0  0  0  0  0  0  0  0  0  0  0  0
  -10.9686   -2.0496   -2.6452 F   0  0  0  0  0  0  0  0  0  0  0  0
  1  2  2  0
  2  3  1  0
  2 16  1  0
  3  4  1  0
  3  6  2  0
  4  5  1  0
  6  7  1  0
  7 15  1  0
  7  8  1  0
 11 12  1  0
 12 28  1  0
 12 27  1  0
 12 26  1  0
 15 16  1  0
 15 25  2  0
 16 17  1  0
 17 18  1  0
 18 19  1  0
 18 29  1  0
 29 30  1  0
 30 31  1  0
 29 32  1  0
 30 33  1  0
  8  9  2  0
  9 10  1  0
 10 11  2  0
 11 13  1  0
 13 14  2  0
 14  8  1  0
 19 20  2  0
 20 21  1  0
 21 22  2  0
 22 23  1  0
 23 24  2  0
 24 19  1  0
M  END

$$$$
No_226-gen_results_new/Mpro_new_generate_500/2024-01-19-21-58-56/
     RDKit          3D

 35 38  0  0  0  0  0  0  0  0999 V2000
   -9.1300   -2.9100    0.4520 O   0  0  0  0  0  0  0  0  0  0  0  0
  -10.2490   -2.6420    0.1800 C   0  0  0  0  0  0  0  0  0  0  0  0
  -11.3800   -3.0650    1.0860 C   0  0  0  0  0  0  0  0  0  0  0  0
  -11.2000   -3.8390    2.3880 C   0  0  0  0  0  0  0  0  0  0  0  0
  -10.9900   -5.0690    2.3420 N   0  0  0  0  0  0  0  0  0  0  0  0
  -12.7310   -2.7290    0.7330 N   0  0  0  0  0  0  0  0  0  0  0  0
  -12.9960   -1.9940   -0.4510 N   0  0  0  0  0  0  0  0  0  0  0  0
  -14.3580   -1.6940   -0.7530 C   0  0  0  0  0  0  0  0  0  0  0  0
  -15.0390   -0.7180   -0.0560 C   0  0  0  0  0  0  0  0  0  0  0  0
  -16.3510   -0.4690   -0.3980 C   0  0  0  0  0  0  0  0  0  0  0  0
  -16.9430   -1.2030   -1.4080 C   0  0  0  0  0  0  0  0  0  0  0  0
  -18.3840   -0.9560   -1.8060 C   0  0  0  0  0  0  0  0  0  0  0  0
  -16.2510   -2.1690   -2.1000 C   0  0  0  0  0  0  0  0  0  0  0  0
  -14.9490   -2.4160   -1.7590 C   0  0  0  0  0  0  0  0  0  0  0  0
  -11.9050   -1.5730   -1.3540 C   0  0  0  0  0  0  0  0  0  0  0  0
  -10.5280   -1.9050   -1.0240 N   0  0  0  0  0  0  0  0  0  0  0  0
   -9.4550   -1.4720   -1.9190 C   0  0  0  0  0  0  0  0  0  0  0  0
   -9.2820   -2.3940   -3.1270 C   0  0  0  0  0  0  0  0  0  0  0  0
   -7.8170   -2.5500   -3.5360 C   0  0  0  0  0  0  0  0  0  0  0  0
   -6.9720   -3.3210   -2.7550 C   0  0  0  0  0  0  0  0  0  0  0  0
   -5.6390   -3.4770   -3.1110 C   0  0  0  0  0  0  0  0  0  0  0  0
   -5.1940   -2.8390   -4.2640 C   0  0  0  0  0  0  0  0  0  0  0  0
   -6.0850   -2.0780   -5.0070 C   0  0  0  0  0  0  0  0  0  0  0  0
   -7.3470   -1.9600   -4.6270 N   0  0  0  0  0  0  0  0  0  0  0  0
  -12.1450   -0.9640   -2.3390 O   0  0  0  0  0  0  0  0  0  0  0  0
  -18.7610   -1.8760   -2.7390 F   0  0  0  0  0  0  0  0  0  0  0  0
  -18.4550    0.3250   -2.2750 F   0  0  0  0  0  0  0  0  0  0  0  0
  -19.1950   -1.1300   -0.7370 F   0  0  0  0  0  0  0  0  0  0  0  0
  -10.0453   -2.0069   -4.3181 C   0  0  0  0  0  0  0  0  0  0  0  0
   -9.8476   -3.8948   -2.8015 C   0  0  0  0  0  0  0  0  0  0  0  0
  -10.9871   -4.2370   -3.4678 C   0  0  0  0  0  0  0  0  0  0  0  0
  -10.8610   -5.1456   -3.8848 F   0  0  0  0  0  0  0  0  0  0  0  0
  -12.0806   -4.1432   -2.6643 F   0  0  0  0  0  0  0  0  0  0  0  0
  -11.3063   -3.0016   -4.4808 O   0  0  0  0  0  0  0  0  0  0  0  0
   -8.9272   -5.0853   -3.0018 C   0  0  0  0  0  0  0  0  0  0  0  0
  1  2  2  0
  2  3  1  0
  2 16  1  0
  3  4  1  0
  3  6  2  0
  4  5  1  0
  6  7  1  0
  7 15  1  0
  7  8  1  0
 11 12  1  0
 12 28  1  0
 12 27  1  0
 12 26  1  0
 15 16  1  0
 15 25  2  0
 16 17  1  0
 17 18  1  0
 18 19  1  0
 18 29  1  0
 18 30  1  0
 30 31  1  0
 31 32  1  0
 31 33  1  0
 29 34  1  0
 31 34  1  0
 30 35  1  0
  8  9  2  0
  9 10  1  0
 10 11  2  0
 11 13  1  0
 13 14  2  0
 14  8  1  0
 19 20  2  0
 20 21  1  0
 21 22  2  0
 22 23  1  0
 23 24  2  0
 24 19  1  0
M  END

$$$$
No_227-gen_results_new/Mpro_new_generate_500/2024-01-19-21-58-56/
     RDKit          3D

 33 35  0  0  0  0  0  0  0  0999 V2000
   -9.1300   -2.9100    0.4520 O   0  0  0  0  0  0  0  0  0  0  0  0
  -10.2490   -2.6420    0.1800 C   0  0  0  0  0  0  0  0  0  0  0  0
  -11.3800   -3.0650    1.0860 C   0  0  0  0  0  0  0  0  0  0  0  0
  -11.2000   -3.8390    2.3880 C   0  0  0  0  0  0  0  0  0  0  0  0
  -10.9900   -5.0690    2.3420 N   0  0  0  0  0  0  0  0  0  0  0  0
  -12.7310   -2.7290    0.7330 N   0  0  0  0  0  0  0  0  0  0  0  0
  -12.9960   -1.9940   -0.4510 N   0  0  0  0  0  0  0  0  0  0  0  0
  -14.3580   -1.6940   -0.7530 C   0  0  0  0  0  0  0  0  0  0  0  0
  -15.0390   -0.7180   -0.0560 C   0  0  0  0  0  0  0  0  0  0  0  0
  -16.3510   -0.4690   -0.3980 C   0  0  0  0  0  0  0  0  0  0  0  0
  -16.9430   -1.2030   -1.4080 C   0  0  0  0  0  0  0  0  0  0  0  0
  -18.3840   -0.9560   -1.8060 C   0  0  0  0  0  0  0  0  0  0  0  0
  -16.2510   -2.1690   -2.1000 C   0  0  0  0  0  0  0  0  0  0  0  0
  -14.9490   -2.4160   -1.7590 C   0  0  0  0  0  0  0  0  0  0  0  0
  -11.9050   -1.5730   -1.3540 C   0  0  0  0  0  0  0  0  0  0  0  0
  -10.5280   -1.9050   -1.0240 N   0  0  0  0  0  0  0  0  0  0  0  0
   -9.4550   -1.4720   -1.9190 C   0  0  0  0  0  0  0  0  0  0  0  0
   -9.2820   -2.3940   -3.1270 C   0  0  0  0  0  0  0  0  0  0  0  0
   -7.8170   -2.5500   -3.5360 C   0  0  0  0  0  0  0  0  0  0  0  0
   -6.9720   -3.3210   -2.7550 C   0  0  0  0  0  0  0  0  0  0  0  0
   -5.6390   -3.4770   -3.1110 C   0  0  0  0  0  0  0  0  0  0  0  0
   -5.1940   -2.8390   -4.2640 C   0  0  0  0  0  0  0  0  0  0  0  0
   -6.0850   -2.0780   -5.0070 C   0  0  0  0  0  0  0  0  0  0  0  0
   -7.3470   -1.9600   -4.6270 N   0  0  0  0  0  0  0  0  0  0  0  0
  -12.1450   -0.9640   -2.3390 O   0  0  0  0  0  0  0  0  0  0  0  0
  -18.7610   -1.8760   -2.7390 F   0  0  0  0  0  0  0  0  0  0  0  0
  -18.4550    0.3250   -2.2750 F   0  0  0  0  0  0  0  0  0  0  0  0
  -19.1950   -1.1300   -0.7370 F   0  0  0  0  0  0  0  0  0  0  0  0
   -9.9397   -3.9796   -2.9011 S   0  0  0  0  0  0  0  0  0  0  0  0
  -11.3260   -3.6401   -3.3485 O   0  0  0  0  0  0  0  0  0  0  0  0
   -9.4252   -5.0543   -2.6707 O   0  0  0  0  0  0  0  0  0  0  0  0
   -9.9328   -4.9006   -1.7417 C   0  0  0  0  0  0  0  0  0  0  0  0
  -10.3085   -5.2430   -0.7479 O   0  0  0  0  0  0  0  0  0  0  0  0
  1  2  2  0
  2  3  1  0
  2 16  1  0
  3  4  1  0
  3  6  2  0
  4  5  1  0
  6  7  1  0
  7 15  1  0
  7  8  1  0
 11 12  1  0
 12 28  1  0
 12 27  1  0
 12 26  1  0
 15 16  1  0
 15 25  2  0
 16 17  1  0
 17 18  1  0
 18 19  1  0
 18 29  1  0
 29 30  2  0
 29 31  2  0
 29 32  1  0
 32 33  2  0
  8  9  2  0
  9 10  1  0
 10 11  2  0
 11 13  1  0
 13 14  2  0
 14  8  1  0
 19 20  2  0
 20 21  1  0
 21 22  2  0
 22 23  1  0
 23 24  2  0
 24 19  1  0
M  END

$$$$
No_228-gen_results_new/Mpro_new_generate_500/2024-01-19-21-58-56/
     RDKit          3D

 34 37  0  0  0  0  0  0  0  0999 V2000
   -9.1300   -2.9100    0.4520 O   0  0  0  0  0  0  0  0  0  0  0  0
  -10.2490   -2.6420    0.1800 C   0  0  0  0  0  0  0  0  0  0  0  0
  -11.3800   -3.0650    1.0860 C   0  0  0  0  0  0  0  0  0  0  0  0
  -11.2000   -3.8390    2.3880 C   0  0  0  0  0  0  0  0  0  0  0  0
  -10.9900   -5.0690    2.3420 N   0  0  0  0  0  0  0  0  0  0  0  0
  -12.7310   -2.7290    0.7330 N   0  0  0  0  0  0  0  0  0  0  0  0
  -12.9960   -1.9940   -0.4510 N   0  0  0  0  0  0  0  0  0  0  0  0
  -14.3580   -1.6940   -0.7530 C   0  0  0  0  0  0  0  0  0  0  0  0
  -15.0390   -0.7180   -0.0560 C   0  0  0  0  0  0  0  0  0  0  0  0
  -16.3510   -0.4690   -0.3980 C   0  0  0  0  0  0  0  0  0  0  0  0
  -16.9430   -1.2030   -1.4080 C   0  0  0  0  0  0  0  0  0  0  0  0
  -18.3840   -0.9560   -1.8060 C   0  0  0  0  0  0  0  0  0  0  0  0
  -16.2510   -2.1690   -2.1000 C   0  0  0  0  0  0  0  0  0  0  0  0
  -14.9490   -2.4160   -1.7590 C   0  0  0  0  0  0  0  0  0  0  0  0
  -11.9050   -1.5730   -1.3540 C   0  0  0  0  0  0  0  0  0  0  0  0
  -10.5280   -1.9050   -1.0240 N   0  0  0  0  0  0  0  0  0  0  0  0
   -9.4550   -1.4720   -1.9190 C   0  0  0  0  0  0  0  0  0  0  0  0
   -9.2820   -2.3940   -3.1270 C   0  0  0  0  0  0  0  0  0  0  0  0
   -7.8170   -2.5500   -3.5360 C   0  0  0  0  0  0  0  0  0  0  0  0
   -6.9720   -3.3210   -2.7550 C   0  0  0  0  0  0  0  0  0  0  0  0
   -5.6390   -3.4770   -3.1110 C   0  0  0  0  0  0  0  0  0  0  0  0
   -5.1940   -2.8390   -4.2640 C   0  0  0  0  0  0  0  0  0  0  0  0
   -6.0850   -2.0780   -5.0070 C   0  0  0  0  0  0  0  0  0  0  0  0
   -7.3470   -1.9600   -4.6270 N   0  0  0  0  0  0  0  0  0  0  0  0
  -12.1450   -0.9640   -2.3390 O   0  0  0  0  0  0  0  0  0  0  0  0
  -18.7610   -1.8760   -2.7390 F   0  0  0  0  0  0  0  0  0  0  0  0
  -18.4550    0.3250   -2.2750 F   0  0  0  0  0  0  0  0  0  0  0  0
  -19.1950   -1.1300   -0.7370 F   0  0  0  0  0  0  0  0  0  0  0  0
  -10.0453   -2.0069   -4.3181 C   0  0  0  0  0  0  0  0  0  0  0  0
   -9.8476   -3.8948   -2.8015 C   0  0  0  0  0  0  0  0  0  0  0  0
  -10.9871   -4.2370   -3.4678 C   0  0  0  0  0  0  0  0  0  0  0  0
  -11.0932   -2.9485   -4.4299 C   0  0  0  0  0  0  0  0  0  0  0  0
  -10.0307   -0.9550   -5.0222 O   0  0  0  0  0  0  0  0  0  0  0  0
  -11.8588   -5.0952   -3.4810 O   0  0  0  0  0  0  0  0  0  0  0  0
  1  2  2  0
  2  3  1  0
  2 16  1  0
  3  4  1  0
  3  6  2  0
  4  5  1  0
  6  7  1  0
  7 15  1  0
  7  8  1  0
 11 12  1  0
 12 28  1  0
 12 27  1  0
 12 26  1  0
 15 16  1  0
 15 25  2  0
 16 17  1  0
 17 18  1  0
 18 19  1  0
 18 29  1  0
 18 30  1  0
 30 31  1  0
 29 32  1  0
 31 32  1  0
 29 33  2  0
 31 34  2  0
  8  9  2  0
  9 10  1  0
 10 11  2  0
 11 13  1  0
 13 14  2  0
 14  8  1  0
 19 20  2  0
 20 21  1  0
 21 22  2  0
 22 23  1  0
 23 24  2  0
 24 19  1  0
M  END

$$$$
No_229-gen_results_new/Mpro_new_generate_500/2024-01-19-21-58-56/
     RDKit          3D

 34 37  0  0  0  0  0  0  0  0999 V2000
   -9.1300   -2.9100    0.4520 O   0  0  0  0  0  0  0  0  0  0  0  0
  -10.2490   -2.6420    0.1800 C   0  0  0  0  0  0  0  0  0  0  0  0
  -11.3800   -3.0650    1.0860 C   0  0  0  0  0  0  0  0  0  0  0  0
  -11.2000   -3.8390    2.3880 C   0  0  0  0  0  0  0  0  0  0  0  0
  -10.9900   -5.0690    2.3420 N   0  0  0  0  0  0  0  0  0  0  0  0
  -12.7310   -2.7290    0.7330 N   0  0  0  0  0  0  0  0  0  0  0  0
  -12.9960   -1.9940   -0.4510 N   0  0  0  0  0  0  0  0  0  0  0  0
  -14.3580   -1.6940   -0.7530 C   0  0  0  0  0  0  0  0  0  0  0  0
  -15.0390   -0.7180   -0.0560 C   0  0  0  0  0  0  0  0  0  0  0  0
  -16.3510   -0.4690   -0.3980 C   0  0  0  0  0  0  0  0  0  0  0  0
  -16.9430   -1.2030   -1.4080 C   0  0  0  0  0  0  0  0  0  0  0  0
  -18.3840   -0.9560   -1.8060 C   0  0  0  0  0  0  0  0  0  0  0  0
  -16.2510   -2.1690   -2.1000 C   0  0  0  0  0  0  0  0  0  0  0  0
  -14.9490   -2.4160   -1.7590 C   0  0  0  0  0  0  0  0  0  0  0  0
  -11.9050   -1.5730   -1.3540 C   0  0  0  0  0  0  0  0  0  0  0  0
  -10.5280   -1.9050   -1.0240 N   0  0  0  0  0  0  0  0  0  0  0  0
   -9.4550   -1.4720   -1.9190 C   0  0  0  0  0  0  0  0  0  0  0  0
   -9.2820   -2.3940   -3.1270 C   0  0  0  0  0  0  0  0  0  0  0  0
   -7.8170   -2.5500   -3.5360 C   0  0  0  0  0  0  0  0  0  0  0  0
   -6.9720   -3.3210   -2.7550 C   0  0  0  0  0  0  0  0  0  0  0  0
   -5.6390   -3.4770   -3.1110 C   0  0  0  0  0  0  0  0  0  0  0  0
   -5.1940   -2.8390   -4.2640 C   0  0  0  0  0  0  0  0  0  0  0  0
   -6.0850   -2.0780   -5.0070 C   0  0  0  0  0  0  0  0  0  0  0  0
   -7.3470   -1.9600   -4.6270 N   0  0  0  0  0  0  0  0  0  0  0  0
  -12.1450   -0.9640   -2.3390 O   0  0  0  0  0  0  0  0  0  0  0  0
  -18.7610   -1.8760   -2.7390 F   0  0  0  0  0  0  0  0  0  0  0  0
  -18.4550    0.3250   -2.2750 F   0  0  0  0  0  0  0  0  0  0  0  0
  -19.1950   -1.1300   -0.7370 F   0  0  0  0  0  0  0  0  0  0  0  0
  -10.0453   -2.0069   -4.3181 C   0  0  0  0  0  0  0  0  0  0  0  0
   -9.9627   -4.1189   -2.7873 S   0  0  0  0  0  0  0  0  0  0  0  0
   -8.8478   -4.9354   -2.4168 C   0  0  0  0  0  0  0  0  0  0  0  0
  -11.3088   -4.4532   -2.8137 O   0  0  0  0  0  0  0  0  0  0  0  0
  -10.0785   -5.1913   -2.9453 O   0  0  0  0  0  0  0  0  0  0  0  0
   -7.6068   -4.2312   -2.0612 O   0  0  0  0  0  0  0  0  0  0  0  0
  1  2  2  0
  2  3  1  0
  2 16  1  0
  3  4  1  0
  3  6  2  0
  4  5  1  0
  6  7  1  0
  7 15  1  0
  7  8  1  0
 11 12  1  0
 12 28  1  0
 12 27  1  0
 12 26  1  0
 15 16  1  0
 15 25  2  0
 16 17  1  0
 17 18  1  0
 18 19  1  0
 18 29  1  0
 18 30  1  0
 30 31  1  0
 30 32  2  0
 30 33  2  0
 20 34  1  0
 31 34  1  0
  8  9  2  0
  9 10  1  0
 10 11  2  0
 11 13  1  0
 13 14  2  0
 14  8  1  0
 19 20  1  0
 20 21  2  0
 21 22  1  0
 22 23  2  0
 23 24  1  0
 24 19  2  0
M  END

$$$$
No_230-gen_results_new/Mpro_new_generate_500/2024-01-19-21-58-56/
     RDKit          3D

 35 38  0  0  0  0  0  0  0  0999 V2000
   -9.1300   -2.9100    0.4520 O   0  0  0  0  0  0  0  0  0  0  0  0
  -10.2490   -2.6420    0.1800 C   0  0  0  0  0  0  0  0  0  0  0  0
  -11.3800   -3.0650    1.0860 C   0  0  0  0  0  0  0  0  0  0  0  0
  -11.2000   -3.8390    2.3880 C   0  0  0  0  0  0  0  0  0  0  0  0
  -10.9900   -5.0690    2.3420 N   0  0  0  0  0  0  0  0  0  0  0  0
  -12.7310   -2.7290    0.7330 N   0  0  0  0  0  0  0  0  0  0  0  0
  -12.9960   -1.9940   -0.4510 N   0  0  0  0  0  0  0  0  0  0  0  0
  -14.3580   -1.6940   -0.7530 C   0  0  0  0  0  0  0  0  0  0  0  0
  -15.0390   -0.7180   -0.0560 C   0  0  0  0  0  0  0  0  0  0  0  0
  -16.3510   -0.4690   -0.3980 C   0  0  0  0  0  0  0  0  0  0  0  0
  -16.9430   -1.2030   -1.4080 C   0  0  0  0  0  0  0  0  0  0  0  0
  -18.3840   -0.9560   -1.8060 C   0  0  0  0  0  0  0  0  0  0  0  0
  -16.2510   -2.1690   -2.1000 C   0  0  0  0  0  0  0  0  0  0  0  0
  -14.9490   -2.4160   -1.7590 C   0  0  0  0  0  0  0  0  0  0  0  0
  -11.9050   -1.5730   -1.3540 C   0  0  0  0  0  0  0  0  0  0  0  0
  -10.5280   -1.9050   -1.0240 N   0  0  0  0  0  0  0  0  0  0  0  0
   -9.4550   -1.4720   -1.9190 C   0  0  0  0  0  0  0  0  0  0  0  0
   -9.2820   -2.3940   -3.1270 C   0  0  0  0  0  0  0  0  0  0  0  0
   -7.8170   -2.5500   -3.5360 C   0  0  0  0  0  0  0  0  0  0  0  0
   -6.9720   -3.3210   -2.7550 C   0  0  0  0  0  0  0  0  0  0  0  0
   -5.6390   -3.4770   -3.1110 C   0  0  0  0  0  0  0  0  0  0  0  0
   -5.1940   -2.8390   -4.2640 C   0  0  0  0  0  0  0  0  0  0  0  0
   -6.0850   -2.0780   -5.0070 C   0  0  0  0  0  0  0  0  0  0  0  0
   -7.3470   -1.9600   -4.6270 N   0  0  0  0  0  0  0  0  0  0  0  0
  -12.1450   -0.9640   -2.3390 O   0  0  0  0  0  0  0  0  0  0  0  0
  -18.7610   -1.8760   -2.7390 F   0  0  0  0  0  0  0  0  0  0  0  0
  -18.4550    0.3250   -2.2750 F   0  0  0  0  0  0  0  0  0  0  0  0
  -19.1950   -1.1300   -0.7370 F   0  0  0  0  0  0  0  0  0  0  0  0
   -9.7920   -3.7475   -2.8656 C   0  0  0  0  0  0  0  0  0  0  0  0
  -10.0717   -1.8029   -4.3549 C   0  0  0  0  0  0  0  0  0  0  0  0
  -10.0419   -4.6597   -4.1091 C   0  0  0  0  0  0  0  0  0  0  0  0
   -9.2599   -4.9047   -4.7641 F   0  0  0  0  0  0  0  0  0  0  0  0
  -11.3508   -4.2421   -4.7353 C   0  0  0  0  0  0  0  0  0  0  0  0
  -12.1280   -3.1795   -4.2932 C   0  0  0  0  0  0  0  0  0  0  0  0
  -11.4325   -1.9611   -4.8419 C   0  0  0  0  0  0  0  0  0  0  0  0
  1  2  2  0
  2  3  1  0
  2 16  1  0
  3  4  1  0
  3  6  2  0
  4  5  1  0
  6  7  1  0
  7 15  1  0
  7  8  1  0
 11 12  1  0
 12 28  1  0
 12 27  1  0
 12 26  1  0
 15 16  1  0
 15 25  2  0
 16 17  1  0
 17 18  1  0
 18 19  1  0
 18 29  1  0
 18 30  1  0
 29 31  1  0
 31 32  1  0
 31 33  1  0
 33 34  2  0
 30 35  1  0
 34 35  1  0
  8  9  2  0
  9 10  1  0
 10 11  2  0
 11 13  1  0
 13 14  2  0
 14  8  1  0
 19 20  2  0
 20 21  1  0
 21 22  2  0
 22 23  1  0
 23 24  2  0
 24 19  1  0
M  END

$$$$
No_231-gen_results_new/Mpro_new_generate_500/2024-01-19-21-58-56/
     RDKit          3D

 33 36  0  0  0  0  0  0  0  0999 V2000
   -9.1300   -2.9100    0.4520 O   0  0  0  0  0  0  0  0  0  0  0  0
  -10.2490   -2.6420    0.1800 C   0  0  0  0  0  0  0  0  0  0  0  0
  -11.3800   -3.0650    1.0860 C   0  0  0  0  0  0  0  0  0  0  0  0
  -11.2000   -3.8390    2.3880 C   0  0  0  0  0  0  0  0  0  0  0  0
  -10.9900   -5.0690    2.3420 N   0  0  0  0  0  0  0  0  0  0  0  0
  -12.7310   -2.7290    0.7330 N   0  0  0  0  0  0  0  0  0  0  0  0
  -12.9960   -1.9940   -0.4510 N   0  0  0  0  0  0  0  0  0  0  0  0
  -14.3580   -1.6940   -0.7530 C   0  0  0  0  0  0  0  0  0  0  0  0
  -15.0390   -0.7180   -0.0560 C   0  0  0  0  0  0  0  0  0  0  0  0
  -16.3510   -0.4690   -0.3980 C   0  0  0  0  0  0  0  0  0  0  0  0
  -16.9430   -1.2030   -1.4080 C   0  0  0  0  0  0  0  0  0  0  0  0
  -18.3840   -0.9560   -1.8060 C   0  0  0  0  0  0  0  0  0  0  0  0
  -16.2510   -2.1690   -2.1000 C   0  0  0  0  0  0  0  0  0  0  0  0
  -14.9490   -2.4160   -1.7590 C   0  0  0  0  0  0  0  0  0  0  0  0
  -11.9050   -1.5730   -1.3540 C   0  0  0  0  0  0  0  0  0  0  0  0
  -10.5280   -1.9050   -1.0240 N   0  0  0  0  0  0  0  0  0  0  0  0
   -9.4550   -1.4720   -1.9190 C   0  0  0  0  0  0  0  0  0  0  0  0
   -9.2820   -2.3940   -3.1270 C   0  0  0  0  0  0  0  0  0  0  0  0
   -7.8170   -2.5500   -3.5360 C   0  0  0  0  0  0  0  0  0  0  0  0
   -6.9720   -3.3210   -2.7550 C   0  0  0  0  0  0  0  0  0  0  0  0
   -5.6390   -3.4770   -3.1110 C   0  0  0  0  0  0  0  0  0  0  0  0
   -5.1940   -2.8390   -4.2640 C   0  0  0  0  0  0  0  0  0  0  0  0
   -6.0850   -2.0780   -5.0070 C   0  0  0  0  0  0  0  0  0  0  0  0
   -7.3470   -1.9600   -4.6270 N   0  0  0  0  0  0  0  0  0  0  0  0
  -12.1450   -0.9640   -2.3390 O   0  0  0  0  0  0  0  0  0  0  0  0
  -18.7610   -1.8760   -2.7390 F   0  0  0  0  0  0  0  0  0  0  0  0
  -18.4550    0.3250   -2.2750 F   0  0  0  0  0  0  0  0  0  0  0  0
  -19.1950   -1.1300   -0.7370 F   0  0  0  0  0  0  0  0  0  0  0  0
  -10.0453   -2.0069   -4.3181 C   0  0  0  0  0  0  0  0  0  0  0  0
   -9.8476   -3.8948   -2.8015 C   0  0  0  0  0  0  0  0  0  0  0  0
  -10.1714   -4.7331   -3.9309 C   0  0  0  0  0  0  0  0  0  0  0  0
  -10.6874   -3.2977   -5.1696 S   0  0  0  0  0  0  0  0  0  0  0  0
  -10.0821   -3.5750   -6.4520 O   0  0  0  0  0  0  0  0  0  0  0  0
  1  2  2  0
  2  3  1  0
  2 16  1  0
  3  4  1  0
  3  6  2  0
  4  5  1  0
  6  7  1  0
  7 15  1  0
  7  8  1  0
 11 12  1  0
 12 28  1  0
 12 27  1  0
 12 26  1  0
 15 16  1  0
 15 25  2  0
 16 17  1  0
 17 18  1  0
 18 19  1  0
 18 29  1  0
 18 30  1  0
 30 31  2  0
 29 32  1  0
 31 32  1  0
 32 33  2  0
  8  9  2  0
  9 10  1  0
 10 11  2  0
 11 13  1  0
 13 14  2  0
 14  8  1  0
 19 20  2  0
 20 21  1  0
 21 22  2  0
 22 23  1  0
 23 24  2  0
 24 19  1  0
M  END

$$$$
No_232-gen_results_new/Mpro_new_generate_500/2024-01-19-21-58-56/
     RDKit          3D

 35 38  0  0  0  0  0  0  0  0999 V2000
   -9.1300   -2.9100    0.4520 O   0  0  0  0  0  0  0  0  0  0  0  0
  -10.2490   -2.6420    0.1800 C   0  0  0  0  0  0  0  0  0  0  0  0
  -11.3800   -3.0650    1.0860 C   0  0  0  0  0  0  0  0  0  0  0  0
  -11.2000   -3.8390    2.3880 C   0  0  0  0  0  0  0  0  0  0  0  0
  -10.9900   -5.0690    2.3420 N   0  0  0  0  0  0  0  0  0  0  0  0
  -12.7310   -2.7290    0.7330 N   0  0  0  0  0  0  0  0  0  0  0  0
  -12.9960   -1.9940   -0.4510 N   0  0  0  0  0  0  0  0  0  0  0  0
  -14.3580   -1.6940   -0.7530 C   0  0  0  0  0  0  0  0  0  0  0  0
  -15.0390   -0.7180   -0.0560 C   0  0  0  0  0  0  0  0  0  0  0  0
  -16.3510   -0.4690   -0.3980 C   0  0  0  0  0  0  0  0  0  0  0  0
  -16.9430   -1.2030   -1.4080 C   0  0  0  0  0  0  0  0  0  0  0  0
  -18.3840   -0.9560   -1.8060 C   0  0  0  0  0  0  0  0  0  0  0  0
  -16.2510   -2.1690   -2.1000 C   0  0  0  0  0  0  0  0  0  0  0  0
  -14.9490   -2.4160   -1.7590 C   0  0  0  0  0  0  0  0  0  0  0  0
  -11.9050   -1.5730   -1.3540 C   0  0  0  0  0  0  0  0  0  0  0  0
  -10.5280   -1.9050   -1.0240 N   0  0  0  0  0  0  0  0  0  0  0  0
   -9.4550   -1.4720   -1.9190 C   0  0  0  0  0  0  0  0  0  0  0  0
   -9.2820   -2.3940   -3.1270 C   0  0  0  0  0  0  0  0  0  0  0  0
   -7.8170   -2.5500   -3.5360 C   0  0  0  0  0  0  0  0  0  0  0  0
   -6.9720   -3.3210   -2.7550 C   0  0  0  0  0  0  0  0  0  0  0  0
   -5.6390   -3.4770   -3.1110 C   0  0  0  0  0  0  0  0  0  0  0  0
   -5.1940   -2.8390   -4.2640 C   0  0  0  0  0  0  0  0  0  0  0  0
   -6.0850   -2.0780   -5.0070 C   0  0  0  0  0  0  0  0  0  0  0  0
   -7.3470   -1.9600   -4.6270 N   0  0  0  0  0  0  0  0  0  0  0  0
  -12.1450   -0.9640   -2.3390 O   0  0  0  0  0  0  0  0  0  0  0  0
  -18.7610   -1.8760   -2.7390 F   0  0  0  0  0  0  0  0  0  0  0  0
  -18.4550    0.3250   -2.2750 F   0  0  0  0  0  0  0  0  0  0  0  0
  -19.1950   -1.1300   -0.7370 F   0  0  0  0  0  0  0  0  0  0  0  0
  -10.0453   -2.0069   -4.3181 C   0  0  0  0  0  0  0  0  0  0  0  0
   -9.8476   -3.8948   -2.8015 C   0  0  0  0  0  0  0  0  0  0  0  0
  -10.1714   -4.7331   -3.9309 C   0  0  0  0  0  0  0  0  0  0  0  0
  -10.7318   -3.9946   -5.1407 C   0  0  0  0  0  0  0  0  0  0  0  0
  -10.4489   -3.0462   -5.3772 C   0  0  0  0  0  0  0  0  0  0  0  0
  -11.2461   -5.0076   -6.2207 C   0  0  0  0  0  0  0  0  0  0  0  0
  -12.4823   -5.1152   -6.4604 N   0  0  0  0  0  0  0  0  0  0  0  0
  1  2  2  0
  2  3  1  0
  2 16  1  0
  3  4  1  0
  3  6  2  0
  4  5  1  0
  6  7  1  0
  7 15  1  0
  7  8  1  0
 11 12  1  0
 12 28  1  0
 12 27  1  0
 12 26  1  0
 15 16  1  0
 15 25  2  0
 16 17  1  0
 17 18  1  0
 18 19  1  0
 18 29  1  0
 18 30  1  0
 31 32  1  0
 29 33  1  0
 32 34  1  0
 34 35  1  0
 33 32  1  0
 31 30  1  0
  8  9  2  0
  9 10  1  0
 10 11  2  0
 11 13  1  0
 13 14  2  0
 14  8  1  0
 19 20  2  0
 20 21  1  0
 21 22  2  0
 22 23  1  0
 23 24  2  0
 24 19  1  0
M  END

$$$$
No_233-gen_results_new/Mpro_new_generate_500/2024-01-19-21-58-56/
     RDKit          3D

 35 38  0  0  0  0  0  0  0  0999 V2000
   -9.1300   -2.9100    0.4520 O   0  0  0  0  0  0  0  0  0  0  0  0
  -10.2490   -2.6420    0.1800 C   0  0  0  0  0  0  0  0  0  0  0  0
  -11.3800   -3.0650    1.0860 C   0  0  0  0  0  0  0  0  0  0  0  0
  -11.2000   -3.8390    2.3880 C   0  0  0  0  0  0  0  0  0  0  0  0
  -10.9900   -5.0690    2.3420 N   0  0  0  0  0  0  0  0  0  0  0  0
  -12.7310   -2.7290    0.7330 N   0  0  0  0  0  0  0  0  0  0  0  0
  -12.9960   -1.9940   -0.4510 N   0  0  0  0  0  0  0  0  0  0  0  0
  -14.3580   -1.6940   -0.7530 C   0  0  0  0  0  0  0  0  0  0  0  0
  -15.0390   -0.7180   -0.0560 C   0  0  0  0  0  0  0  0  0  0  0  0
  -16.3510   -0.4690   -0.3980 C   0  0  0  0  0  0  0  0  0  0  0  0
  -16.9430   -1.2030   -1.4080 C   0  0  0  0  0  0  0  0  0  0  0  0
  -18.3840   -0.9560   -1.8060 C   0  0  0  0  0  0  0  0  0  0  0  0
  -16.2510   -2.1690   -2.1000 C   0  0  0  0  0  0  0  0  0  0  0  0
  -14.9490   -2.4160   -1.7590 C   0  0  0  0  0  0  0  0  0  0  0  0
  -11.9050   -1.5730   -1.3540 C   0  0  0  0  0  0  0  0  0  0  0  0
  -10.5280   -1.9050   -1.0240 N   0  0  0  0  0  0  0  0  0  0  0  0
   -9.4550   -1.4720   -1.9190 C   0  0  0  0  0  0  0  0  0  0  0  0
   -9.2820   -2.3940   -3.1270 C   0  0  0  0  0  0  0  0  0  0  0  0
   -7.8170   -2.5500   -3.5360 C   0  0  0  0  0  0  0  0  0  0  0  0
   -6.9720   -3.3210   -2.7550 C   0  0  0  0  0  0  0  0  0  0  0  0
   -5.6390   -3.4770   -3.1110 C   0  0  0  0  0  0  0  0  0  0  0  0
   -5.1940   -2.8390   -4.2640 C   0  0  0  0  0  0  0  0  0  0  0  0
   -6.0850   -2.0780   -5.0070 C   0  0  0  0  0  0  0  0  0  0  0  0
   -7.3470   -1.9600   -4.6270 N   0  0  0  0  0  0  0  0  0  0  0  0
  -12.1450   -0.9640   -2.3390 O   0  0  0  0  0  0  0  0  0  0  0  0
  -18.7610   -1.8760   -2.7390 F   0  0  0  0  0  0  0  0  0  0  0  0
  -18.4550    0.3250   -2.2750 F   0  0  0  0  0  0  0  0  0  0  0  0
  -19.1950   -1.1300   -0.7370 F   0  0  0  0  0  0  0  0  0  0  0  0
  -10.0453   -2.0069   -4.3181 C   0  0  0  0  0  0  0  0  0  0  0  0
   -9.8476   -3.8948   -2.8015 C   0  0  0  0  0  0  0  0  0  0  0  0
  -10.1714   -4.7331   -3.9309 C   0  0  0  0  0  0  0  0  0  0  0  0
  -10.1186   -5.9859   -3.4612 F   0  0  0  0  0  0  0  0  0  0  0  0
  -10.3346   -4.5531   -5.1975 C   0  0  0  0  0  0  0  0  0  0  0  0
  -10.9808   -5.3530   -6.1345 F   0  0  0  0  0  0  0  0  0  0  0  0
  -10.5179   -3.0962   -5.5977 C   0  0  0  0  0  0  0  0  0  0  0  0
  1  2  2  0
  2  3  1  0
  2 16  1  0
  3  4  1  0
  3  6  2  0
  4  5  1  0
  6  7  1  0
  7 15  1  0
  7  8  1  0
 11 12  1  0
 12 28  1  0
 12 27  1  0
 12 26  1  0
 15 16  1  0
 15 25  2  0
 16 17  1  0
 17 18  1  0
 18 19  1  0
 18 29  1  0
 18 30  1  0
 31 32  1  0
 31 33  1  0
 33 34  1  0
 29 35  1  0
 33 35  1  0
 31 30  1  0
  8  9  2  0
  9 10  1  0
 10 11  2  0
 11 13  1  0
 13 14  2  0
 14  8  1  0
 19 20  2  0
 20 21  1  0
 21 22  2  0
 22 23  1  0
 23 24  2  0
 24 19  1  0
M  END

$$$$
No_234-gen_results_new/Mpro_new_generate_500/2024-01-19-21-58-56/
     RDKit          3D

 34 37  0  0  0  0  0  0  0  0999 V2000
   -9.1300   -2.9100    0.4520 O   0  0  0  0  0  0  0  0  0  0  0  0
  -10.2490   -2.6420    0.1800 C   0  0  0  0  0  0  0  0  0  0  0  0
  -11.3800   -3.0650    1.0860 C   0  0  0  0  0  0  0  0  0  0  0  0
  -11.2000   -3.8390    2.3880 C   0  0  0  0  0  0  0  0  0  0  0  0
  -10.9900   -5.0690    2.3420 N   0  0  0  0  0  0  0  0  0  0  0  0
  -12.7310   -2.7290    0.7330 N   0  0  0  0  0  0  0  0  0  0  0  0
  -12.9960   -1.9940   -0.4510 N   0  0  0  0  0  0  0  0  0  0  0  0
  -14.3580   -1.6940   -0.7530 C   0  0  0  0  0  0  0  0  0  0  0  0
  -15.0390   -0.7180   -0.0560 C   0  0  0  0  0  0  0  0  0  0  0  0
  -16.3510   -0.4690   -0.3980 C   0  0  0  0  0  0  0  0  0  0  0  0
  -16.9430   -1.2030   -1.4080 C   0  0  0  0  0  0  0  0  0  0  0  0
  -18.3840   -0.9560   -1.8060 C   0  0  0  0  0  0  0  0  0  0  0  0
  -16.2510   -2.1690   -2.1000 C   0  0  0  0  0  0  0  0  0  0  0  0
  -14.9490   -2.4160   -1.7590 C   0  0  0  0  0  0  0  0  0  0  0  0
  -11.9050   -1.5730   -1.3540 C   0  0  0  0  0  0  0  0  0  0  0  0
  -10.5280   -1.9050   -1.0240 N   0  0  0  0  0  0  0  0  0  0  0  0
   -9.4550   -1.4720   -1.9190 C   0  0  0  0  0  0  0  0  0  0  0  0
   -9.2820   -2.3940   -3.1270 C   0  0  0  0  0  0  0  0  0  0  0  0
   -7.8170   -2.5500   -3.5360 C   0  0  0  0  0  0  0  0  0  0  0  0
   -6.9720   -3.3210   -2.7550 C   0  0  0  0  0  0  0  0  0  0  0  0
   -5.6390   -3.4770   -3.1110 C   0  0  0  0  0  0  0  0  0  0  0  0
   -5.1940   -2.8390   -4.2640 C   0  0  0  0  0  0  0  0  0  0  0  0
   -6.0850   -2.0780   -5.0070 C   0  0  0  0  0  0  0  0  0  0  0  0
   -7.3470   -1.9600   -4.6270 N   0  0  0  0  0  0  0  0  0  0  0  0
  -12.1450   -0.9640   -2.3390 O   0  0  0  0  0  0  0  0  0  0  0  0
  -18.7610   -1.8760   -2.7390 F   0  0  0  0  0  0  0  0  0  0  0  0
  -18.4550    0.3250   -2.2750 F   0  0  0  0  0  0  0  0  0  0  0  0
  -19.1950   -1.1300   -0.7370 F   0  0  0  0  0  0  0  0  0  0  0  0
  -10.0453   -2.0069   -4.3181 C   0  0  0  0  0  0  0  0  0  0  0  0
   -9.8476   -3.8948   -2.8015 C   0  0  0  0  0  0  0  0  0  0  0  0
  -10.1714   -4.7331   -3.9309 C   0  0  0  0  0  0  0  0  0  0  0  0
  -10.7318   -3.9946   -5.1407 C   0  0  0  0  0  0  0  0  0  0  0  0
  -11.4032   -4.8968   -6.1921 C   0  0  0  0  0  0  0  0  0  0  0  0
  -10.5878   -2.7236   -5.3123 O   0  0  0  0  0  0  0  0  0  0  0  0
  1  2  2  0
  2  3  1  0
  2 16  1  0
  3  4  1  0
  3  6  2  0
  4  5  1  0
  6  7  1  0
  7 15  1  0
  7  8  1  0
 11 12  1  0
 12 28  1  0
 12 27  1  0
 12 26  1  0
 15 16  1  0
 15 25  2  0
 16 17  1  0
 17 18  1  0
 18 19  1  0
 18 29  1  0
 18 30  1  0
 30 31  2  0
 31 32  1  0
 32 33  2  0
 29 34  1  0
 32 34  1  0
  8  9  2  0
  9 10  1  0
 10 11  2  0
 11 13  1  0
 13 14  2  0
 14  8  1  0
 19 20  2  0
 20 21  1  0
 21 22  2  0
 22 23  1  0
 23 24  2  0
 24 19  1  0
M  END

$$$$
No_235-gen_results_new/Mpro_new_generate_500/2024-01-19-21-58-56/
     RDKit          3D

 35 38  0  0  0  0  0  0  0  0999 V2000
   -9.1300   -2.9100    0.4520 O   0  0  0  0  0  0  0  0  0  0  0  0
  -10.2490   -2.6420    0.1800 C   0  0  0  0  0  0  0  0  0  0  0  0
  -11.3800   -3.0650    1.0860 C   0  0  0  0  0  0  0  0  0  0  0  0
  -11.2000   -3.8390    2.3880 C   0  0  0  0  0  0  0  0  0  0  0  0
  -10.9900   -5.0690    2.3420 N   0  0  0  0  0  0  0  0  0  0  0  0
  -12.7310   -2.7290    0.7330 N   0  0  0  0  0  0  0  0  0  0  0  0
  -12.9960   -1.9940   -0.4510 N   0  0  0  0  0  0  0  0  0  0  0  0
  -14.3580   -1.6940   -0.7530 C   0  0  0  0  0  0  0  0  0  0  0  0
  -15.0390   -0.7180   -0.0560 C   0  0  0  0  0  0  0  0  0  0  0  0
  -16.3510   -0.4690   -0.3980 C   0  0  0  0  0  0  0  0  0  0  0  0
  -16.9430   -1.2030   -1.4080 C   0  0  0  0  0  0  0  0  0  0  0  0
  -18.3840   -0.9560   -1.8060 C   0  0  0  0  0  0  0  0  0  0  0  0
  -16.2510   -2.1690   -2.1000 C   0  0  0  0  0  0  0  0  0  0  0  0
  -14.9490   -2.4160   -1.7590 C   0  0  0  0  0  0  0  0  0  0  0  0
  -11.9050   -1.5730   -1.3540 C   0  0  0  0  0  0  0  0  0  0  0  0
  -10.5280   -1.9050   -1.0240 N   0  0  0  0  0  0  0  0  0  0  0  0
   -9.4550   -1.4720   -1.9190 C   0  0  0  0  0  0  0  0  0  0  0  0
   -9.2820   -2.3940   -3.1270 C   0  0  0  0  0  0  0  0  0  0  0  0
   -7.8170   -2.5500   -3.5360 C   0  0  0  0  0  0  0  0  0  0  0  0
   -6.9720   -3.3210   -2.7550 C   0  0  0  0  0  0  0  0  0  0  0  0
   -5.6390   -3.4770   -3.1110 C   0  0  0  0  0  0  0  0  0  0  0  0
   -5.1940   -2.8390   -4.2640 C   0  0  0  0  0  0  0  0  0  0  0  0
   -6.0850   -2.0780   -5.0070 C   0  0  0  0  0  0  0  0  0  0  0  0
   -7.3470   -1.9600   -4.6270 N   0  0  0  0  0  0  0  0  0  0  0  0
  -12.1450   -0.9640   -2.3390 O   0  0  0  0  0  0  0  0  0  0  0  0
  -18.7610   -1.8760   -2.7390 F   0  0  0  0  0  0  0  0  0  0  0  0
  -18.4550    0.3250   -2.2750 F   0  0  0  0  0  0  0  0  0  0  0  0
  -19.1950   -1.1300   -0.7370 F   0  0  0  0  0  0  0  0  0  0  0  0
   -9.7920   -3.7475   -2.8656 C   0  0  0  0  0  0  0  0  0  0  0  0
  -10.1387   -2.0206   -4.2903 C   0  0  0  0  0  0  0  0  0  0  0  0
  -10.1257   -4.6809   -3.9732 C   0  0  0  0  0  0  0  0  0  0  0  0
  -10.5661   -3.6103   -4.9231 O   0  0  0  0  0  0  0  0  0  0  0  0
   -9.6565   -1.3513   -5.4053 F   0  0  0  0  0  0  0  0  0  0  0  0
  -11.2361   -1.1687   -4.5242 C   0  0  0  0  0  0  0  0  0  0  0  0
  -11.0537   -4.0561   -2.1841 C   0  0  0  0  0  0  0  0  0  0  0  0
  1  2  2  0
  2  3  1  0
  2 16  1  0
  3  4  1  0
  3  6  2  0
  4  5  1  0
  6  7  1  0
  7 15  1  0
  7  8  1  0
 11 12  1  0
 12 28  1  0
 12 27  1  0
 12 26  1  0
 15 16  1  0
 15 25  2  0
 16 17  1  0
 17 18  1  0
 18 19  1  0
 18 29  1  0
 18 30  1  0
 29 31  2  0
 30 32  1  0
 31 32  1  0
 30 33  1  0
 30 34  1  0
 29 35  1  0
  8  9  2  0
  9 10  1  0
 10 11  2  0
 11 13  1  0
 13 14  2  0
 14  8  1  0
 19 20  2  0
 20 21  1  0
 21 22  2  0
 22 23  1  0
 23 24  2  0
 24 19  1  0
M  END

$$$$
No_236-gen_results_new/Mpro_new_generate_500/2024-01-19-21-58-56/
     RDKit          3D

 33 35  0  0  0  0  0  0  0  0999 V2000
   -9.1300   -2.9100    0.4520 O   0  0  0  0  0  0  0  0  0  0  0  0
  -10.2490   -2.6420    0.1800 C   0  0  0  0  0  0  0  0  0  0  0  0
  -11.3800   -3.0650    1.0860 C   0  0  0  0  0  0  0  0  0  0  0  0
  -11.2000   -3.8390    2.3880 C   0  0  0  0  0  0  0  0  0  0  0  0
  -10.9900   -5.0690    2.3420 N   0  0  0  0  0  0  0  0  0  0  0  0
  -12.7310   -2.7290    0.7330 N   0  0  0  0  0  0  0  0  0  0  0  0
  -12.9960   -1.9940   -0.4510 N   0  0  0  0  0  0  0  0  0  0  0  0
  -14.3580   -1.6940   -0.7530 C   0  0  0  0  0  0  0  0  0  0  0  0
  -15.0390   -0.7180   -0.0560 C   0  0  0  0  0  0  0  0  0  0  0  0
  -16.3510   -0.4690   -0.3980 C   0  0  0  0  0  0  0  0  0  0  0  0
  -16.9430   -1.2030   -1.4080 C   0  0  0  0  0  0  0  0  0  0  0  0
  -18.3840   -0.9560   -1.8060 C   0  0  0  0  0  0  0  0  0  0  0  0
  -16.2510   -2.1690   -2.1000 C   0  0  0  0  0  0  0  0  0  0  0  0
  -14.9490   -2.4160   -1.7590 C   0  0  0  0  0  0  0  0  0  0  0  0
  -11.9050   -1.5730   -1.3540 C   0  0  0  0  0  0  0  0  0  0  0  0
  -10.5280   -1.9050   -1.0240 N   0  0  0  0  0  0  0  0  0  0  0  0
   -9.4550   -1.4720   -1.9190 C   0  0  0  0  0  0  0  0  0  0  0  0
   -9.2820   -2.3940   -3.1270 C   0  0  0  0  0  0  0  0  0  0  0  0
   -7.8170   -2.5500   -3.5360 C   0  0  0  0  0  0  0  0  0  0  0  0
   -6.9720   -3.3210   -2.7550 C   0  0  0  0  0  0  0  0  0  0  0  0
   -5.6390   -3.4770   -3.1110 C   0  0  0  0  0  0  0  0  0  0  0  0
   -5.1940   -2.8390   -4.2640 C   0  0  0  0  0  0  0  0  0  0  0  0
   -6.0850   -2.0780   -5.0070 C   0  0  0  0  0  0  0  0  0  0  0  0
   -7.3470   -1.9600   -4.6270 N   0  0  0  0  0  0  0  0  0  0  0  0
  -12.1450   -0.9640   -2.3390 O   0  0  0  0  0  0  0  0  0  0  0  0
  -18.7610   -1.8760   -2.7390 F   0  0  0  0  0  0  0  0  0  0  0  0
  -18.4550    0.3250   -2.2750 F   0  0  0  0  0  0  0  0  0  0  0  0
  -19.1950   -1.1300   -0.7370 F   0  0  0  0  0  0  0  0  0  0  0  0
   -9.7920   -3.7475   -2.8656 C   0  0  0  0  0  0  0  0  0  0  0  0
  -10.0501   -2.2290   -4.1303 F   0  0  0  0  0  0  0  0  0  0  0  0
  -11.2200   -3.7456   -2.7897 F   0  0  0  0  0  0  0  0  0  0  0  0
   -9.3499   -4.1943   -2.0199 F   0  0  0  0  0  0  0  0  0  0  0  0
   -9.6424   -4.5412   -4.0142 F   0  0  0  0  0  0  0  0  0  0  0  0
  1  2  2  0
  2  3  1  0
  2 16  1  0
  3  4  1  0
  3  6  2  0
  4  5  1  0
  6  7  1  0
  7 15  1  0
  7  8  1  0
 11 12  1  0
 12 28  1  0
 12 27  1  0
 12 26  1  0
 15 16  1  0
 15 25  2  0
 16 17  1  0
 17 18  1  0
 18 19  1  0
 18 29  1  0
 18 30  1  0
 29 31  1  0
 29 32  1  0
 29 33  1  0
  8  9  2  0
  9 10  1  0
 10 11  2  0
 11 13  1  0
 13 14  2  0
 14  8  1  0
 19 20  2  0
 20 21  1  0
 21 22  2  0
 22 23  1  0
 23 24  2  0
 24 19  1  0
M  END

$$$$
No_237-gen_results_new/Mpro_new_generate_500/2024-01-19-21-58-56/
     RDKit          3D

 34 37  0  0  0  0  0  0  0  0999 V2000
   -9.1300   -2.9100    0.4520 O   0  0  0  0  0  0  0  0  0  0  0  0
  -10.2490   -2.6420    0.1800 C   0  0  0  0  0  0  0  0  0  0  0  0
  -11.3800   -3.0650    1.0860 C   0  0  0  0  0  0  0  0  0  0  0  0
  -11.2000   -3.8390    2.3880 C   0  0  0  0  0  0  0  0  0  0  0  0
  -10.9900   -5.0690    2.3420 N   0  0  0  0  0  0  0  0  0  0  0  0
  -12.7310   -2.7290    0.7330 N   0  0  0  0  0  0  0  0  0  0  0  0
  -12.9960   -1.9940   -0.4510 N   0  0  0  0  0  0  0  0  0  0  0  0
  -14.3580   -1.6940   -0.7530 C   0  0  0  0  0  0  0  0  0  0  0  0
  -15.0390   -0.7180   -0.0560 C   0  0  0  0  0  0  0  0  0  0  0  0
  -16.3510   -0.4690   -0.3980 C   0  0  0  0  0  0  0  0  0  0  0  0
  -16.9430   -1.2030   -1.4080 C   0  0  0  0  0  0  0  0  0  0  0  0
  -18.3840   -0.9560   -1.8060 C   0  0  0  0  0  0  0  0  0  0  0  0
  -16.2510   -2.1690   -2.1000 C   0  0  0  0  0  0  0  0  0  0  0  0
  -14.9490   -2.4160   -1.7590 C   0  0  0  0  0  0  0  0  0  0  0  0
  -11.9050   -1.5730   -1.3540 C   0  0  0  0  0  0  0  0  0  0  0  0
  -10.5280   -1.9050   -1.0240 N   0  0  0  0  0  0  0  0  0  0  0  0
   -9.4550   -1.4720   -1.9190 C   0  0  0  0  0  0  0  0  0  0  0  0
   -9.2820   -2.3940   -3.1270 C   0  0  0  0  0  0  0  0  0  0  0  0
   -7.8170   -2.5500   -3.5360 C   0  0  0  0  0  0  0  0  0  0  0  0
   -6.9720   -3.3210   -2.7550 C   0  0  0  0  0  0  0  0  0  0  0  0
   -5.6390   -3.4770   -3.1110 C   0  0  0  0  0  0  0  0  0  0  0  0
   -5.1940   -2.8390   -4.2640 C   0  0  0  0  0  0  0  0  0  0  0  0
   -6.0850   -2.0780   -5.0070 C   0  0  0  0  0  0  0  0  0  0  0  0
   -7.3470   -1.9600   -4.6270 N   0  0  0  0  0  0  0  0  0  0  0  0
  -12.1450   -0.9640   -2.3390 O   0  0  0  0  0  0  0  0  0  0  0  0
  -18.7610   -1.8760   -2.7390 F   0  0  0  0  0  0  0  0  0  0  0  0
  -18.4550    0.3250   -2.2750 F   0  0  0  0  0  0  0  0  0  0  0  0
  -19.1950   -1.1300   -0.7370 F   0  0  0  0  0  0  0  0  0  0  0  0
   -9.7920   -3.7475   -2.8656 C   0  0  0  0  0  0  0  0  0  0  0  0
  -10.1387   -2.0206   -4.2903 C   0  0  0  0  0  0  0  0  0  0  0  0
  -10.1257   -4.6809   -3.9732 C   0  0  0  0  0  0  0  0  0  0  0  0
  -10.3476   -6.2193   -3.5551 S   0  0  0  0  0  0  0  0  0  0  0  0
  -10.3737   -6.2229   -1.9815 C   0  0  0  0  0  0  0  0  0  0  0  0
   -9.4601   -4.6884   -1.7271 C   0  0  0  0  0  0  0  0  0  0  0  0
  1  2  2  0
  2  3  1  0
  2 16  1  0
  3  4  1  0
  3  6  2  0
  4  5  1  0
  6  7  1  0
  7 15  1  0
  7  8  1  0
 11 12  1  0
 12 28  1  0
 12 27  1  0
 12 26  1  0
 15 16  1  0
 15 25  2  0
 16 17  1  0
 17 18  1  0
 18 19  1  0
 18 29  1  0
 18 30  1  0
 29 31  2  0
 31 32  1  0
 32 33  1  0
 29 34  1  0
 33 34  1  0
  8  9  2  0
  9 10  1  0
 10 11  2  0
 11 13  1  0
 13 14  2  0
 14  8  1  0
 19 20  2  0
 20 21  1  0
 21 22  2  0
 22 23  1  0
 23 24  2  0
 24 19  1  0
M  END

$$$$
No_238-gen_results_new/Mpro_new_generate_500/2024-01-19-21-58-56/
     RDKit          3D

 35 37  0  0  0  0  0  0  0  0999 V2000
   -9.1300   -2.9100    0.4520 O   0  0  0  0  0  0  0  0  0  0  0  0
  -10.2490   -2.6420    0.1800 C   0  0  0  0  0  0  0  0  0  0  0  0
  -11.3800   -3.0650    1.0860 C   0  0  0  0  0  0  0  0  0  0  0  0
  -11.2000   -3.8390    2.3880 C   0  0  0  0  0  0  0  0  0  0  0  0
  -10.9900   -5.0690    2.3420 N   0  0  0  0  0  0  0  0  0  0  0  0
  -12.7310   -2.7290    0.7330 N   0  0  0  0  0  0  0  0  0  0  0  0
  -12.9960   -1.9940   -0.4510 N   0  0  0  0  0  0  0  0  0  0  0  0
  -14.3580   -1.6940   -0.7530 C   0  0  0  0  0  0  0  0  0  0  0  0
  -15.0390   -0.7180   -0.0560 C   0  0  0  0  0  0  0  0  0  0  0  0
  -16.3510   -0.4690   -0.3980 C   0  0  0  0  0  0  0  0  0  0  0  0
  -16.9430   -1.2030   -1.4080 C   0  0  0  0  0  0  0  0  0  0  0  0
  -18.3840   -0.9560   -1.8060 C   0  0  0  0  0  0  0  0  0  0  0  0
  -16.2510   -2.1690   -2.1000 C   0  0  0  0  0  0  0  0  0  0  0  0
  -14.9490   -2.4160   -1.7590 C   0  0  0  0  0  0  0  0  0  0  0  0
  -11.9050   -1.5730   -1.3540 C   0  0  0  0  0  0  0  0  0  0  0  0
  -10.5280   -1.9050   -1.0240 N   0  0  0  0  0  0  0  0  0  0  0  0
   -9.4550   -1.4720   -1.9190 C   0  0  0  0  0  0  0  0  0  0  0  0
   -9.2820   -2.3940   -3.1270 C   0  0  0  0  0  0  0  0  0  0  0  0
   -7.8170   -2.5500   -3.5360 C   0  0  0  0  0  0  0  0  0  0  0  0
   -6.9720   -3.3210   -2.7550 C   0  0  0  0  0  0  0  0  0  0  0  0
   -5.6390   -3.4770   -3.1110 C   0  0  0  0  0  0  0  0  0  0  0  0
   -5.1940   -2.8390   -4.2640 C   0  0  0  0  0  0  0  0  0  0  0  0
   -6.0850   -2.0780   -5.0070 C   0  0  0  0  0  0  0  0  0  0  0  0
   -7.3470   -1.9600   -4.6270 N   0  0  0  0  0  0  0  0  0  0  0  0
  -12.1450   -0.9640   -2.3390 O   0  0  0  0  0  0  0  0  0  0  0  0
  -18.7610   -1.8760   -2.7390 F   0  0  0  0  0  0  0  0  0  0  0  0
  -18.4550    0.3250   -2.2750 F   0  0  0  0  0  0  0  0  0  0  0  0
  -19.1950   -1.1300   -0.7370 F   0  0  0  0  0  0  0  0  0  0  0  0
   -9.7920   -3.7475   -2.8656 C   0  0  0  0  0  0  0  0  0  0  0  0
  -10.0717   -1.8029   -4.3549 C   0  0  0  0  0  0  0  0  0  0  0  0
   -9.3646   -4.4618   -1.7954 F   0  0  0  0  0  0  0  0  0  0  0  0
   -9.8768   -4.7033   -4.0148 C   0  0  0  0  0  0  0  0  0  0  0  0
  -11.2295   -3.6017   -2.4290 O   0  0  0  0  0  0  0  0  0  0  0  0
  -11.8682   -4.9373   -2.9202 C   0  0  0  0  0  0  0  0  0  0  0  0
  -13.1305   -5.2801   -2.5692 F   0  0  0  0  0  0  0  0  0  0  0  0
  1  2  2  0
  2  3  1  0
  2 16  1  0
  3  4  1  0
  3  6  2  0
  4  5  1  0
  6  7  1  0
  7 15  1  0
  7  8  1  0
 11 12  1  0
 12 28  1  0
 12 27  1  0
 12 26  1  0
 15 16  1  0
 15 25  2  0
 16 17  1  0
 17 18  1  0
 18 19  1  0
 18 29  1  0
 18 30  1  0
 29 31  1  0
 29 32  1  0
 29 33  1  0
 33 34  1  0
 34 35  1  0
  8  9  2  0
  9 10  1  0
 10 11  2  0
 11 13  1  0
 13 14  2  0
 14  8  1  0
 19 20  2  0
 20 21  1  0
 21 22  2  0
 22 23  1  0
 23 24  2  0
 24 19  1  0
M  END

$$$$
No_239-gen_results_new/Mpro_new_generate_500/2024-01-19-21-58-56/
     RDKit          3D

 35 37  0  0  0  0  0  0  0  0999 V2000
   -9.1300   -2.9100    0.4520 O   0  0  0  0  0  0  0  0  0  0  0  0
  -10.2490   -2.6420    0.1800 C   0  0  0  0  0  0  0  0  0  0  0  0
  -11.3800   -3.0650    1.0860 C   0  0  0  0  0  0  0  0  0  0  0  0
  -11.2000   -3.8390    2.3880 C   0  0  0  0  0  0  0  0  0  0  0  0
  -10.9900   -5.0690    2.3420 N   0  0  0  0  0  0  0  0  0  0  0  0
  -12.7310   -2.7290    0.7330 N   0  0  0  0  0  0  0  0  0  0  0  0
  -12.9960   -1.9940   -0.4510 N   0  0  0  0  0  0  0  0  0  0  0  0
  -14.3580   -1.6940   -0.7530 C   0  0  0  0  0  0  0  0  0  0  0  0
  -15.0390   -0.7180   -0.0560 C   0  0  0  0  0  0  0  0  0  0  0  0
  -16.3510   -0.4690   -0.3980 C   0  0  0  0  0  0  0  0  0  0  0  0
  -16.9430   -1.2030   -1.4080 C   0  0  0  0  0  0  0  0  0  0  0  0
  -18.3840   -0.9560   -1.8060 C   0  0  0  0  0  0  0  0  0  0  0  0
  -16.2510   -2.1690   -2.1000 C   0  0  0  0  0  0  0  0  0  0  0  0
  -14.9490   -2.4160   -1.7590 C   0  0  0  0  0  0  0  0  0  0  0  0
  -11.9050   -1.5730   -1.3540 C   0  0  0  0  0  0  0  0  0  0  0  0
  -10.5280   -1.9050   -1.0240 N   0  0  0  0  0  0  0  0  0  0  0  0
   -9.4550   -1.4720   -1.9190 C   0  0  0  0  0  0  0  0  0  0  0  0
   -9.2820   -2.3940   -3.1270 C   0  0  0  0  0  0  0  0  0  0  0  0
   -7.8170   -2.5500   -3.5360 C   0  0  0  0  0  0  0  0  0  0  0  0
   -6.9720   -3.3210   -2.7550 C   0  0  0  0  0  0  0  0  0  0  0  0
   -5.6390   -3.4770   -3.1110 C   0  0  0  0  0  0  0  0  0  0  0  0
   -5.1940   -2.8390   -4.2640 C   0  0  0  0  0  0  0  0  0  0  0  0
   -6.0850   -2.0780   -5.0070 C   0  0  0  0  0  0  0  0  0  0  0  0
   -7.3470   -1.9600   -4.6270 N   0  0  0  0  0  0  0  0  0  0  0  0
  -12.1450   -0.9640   -2.3390 O   0  0  0  0  0  0  0  0  0  0  0  0
  -18.7610   -1.8760   -2.7390 F   0  0  0  0  0  0  0  0  0  0  0  0
  -18.4550    0.3250   -2.2750 F   0  0  0  0  0  0  0  0  0  0  0  0
  -19.1950   -1.1300   -0.7370 F   0  0  0  0  0  0  0  0  0  0  0  0
  -10.0899   -3.0088   -3.7244 O   0  0  0  0  0  0  0  0  0  0  0  0
  -16.7844   -3.0180   -3.1233 O   0  0  0  0  0  0  0  0  0  0  0  0
  -16.7281   -4.4242   -2.9973 C   0  0  0  0  0  0  0  0  0  0  0  0
  -15.5927   -4.5763   -4.2175 C   0  0  0  0  0  0  0  0  0  0  0  0
  -14.6574   -5.7536   -3.6382 C   0  0  0  0  0  0  0  0  0  0  0  0
  -13.5627   -5.8396   -4.4629 N   0  0  0  0  0  0  0  0  0  0  0  0
  -14.1672   -5.7029   -2.2350 C   0  0  0  0  0  0  0  0  0  0  0  0
  1  2  2  0
  2  3  1  0
  2 16  1  0
  3  4  1  0
  3  6  2  0
  4  5  1  0
  6  7  1  0
  7 15  1  0
  7  8  1  0
 11 12  1  0
 12 28  1  0
 12 27  1  0
 12 26  1  0
 15 16  1  0
 15 25  2  0
 16 17  1  0
 17 18  1  0
 18 19  1  0
 18 29  2  0
 13 30  1  0
 30 31  1  0
 31 32  1  0
 32 33  1  0
 33 34  1  0
 33 35  1  0
  8  9  2  0
  9 10  1  0
 10 11  2  0
 11 13  1  0
 13 14  2  0
 14  8  1  0
 19 20  2  0
 20 21  1  0
 21 22  2  0
 22 23  1  0
 23 24  2  0
 24 19  1  0
M  END

$$$$
No_240-gen_results_new/Mpro_new_generate_500/2024-01-19-21-58-56/
     RDKit          3D

 34 37  0  0  0  0  0  0  0  0999 V2000
   -9.1300   -2.9100    0.4520 O   0  0  0  0  0  0  0  0  0  0  0  0
  -10.2490   -2.6420    0.1800 C   0  0  0  0  0  0  0  0  0  0  0  0
  -11.3800   -3.0650    1.0860 C   0  0  0  0  0  0  0  0  0  0  0  0
  -11.2000   -3.8390    2.3880 C   0  0  0  0  0  0  0  0  0  0  0  0
  -10.9900   -5.0690    2.3420 N   0  0  0  0  0  0  0  0  0  0  0  0
  -12.7310   -2.7290    0.7330 N   0  0  0  0  0  0  0  0  0  0  0  0
  -12.9960   -1.9940   -0.4510 N   0  0  0  0  0  0  0  0  0  0  0  0
  -14.3580   -1.6940   -0.7530 C   0  0  0  0  0  0  0  0  0  0  0  0
  -15.0390   -0.7180   -0.0560 C   0  0  0  0  0  0  0  0  0  0  0  0
  -16.3510   -0.4690   -0.3980 C   0  0  0  0  0  0  0  0  0  0  0  0
  -16.9430   -1.2030   -1.4080 C   0  0  0  0  0  0  0  0  0  0  0  0
  -18.3840   -0.9560   -1.8060 C   0  0  0  0  0  0  0  0  0  0  0  0
  -16.2510   -2.1690   -2.1000 C   0  0  0  0  0  0  0  0  0  0  0  0
  -14.9490   -2.4160   -1.7590 C   0  0  0  0  0  0  0  0  0  0  0  0
  -11.9050   -1.5730   -1.3540 C   0  0  0  0  0  0  0  0  0  0  0  0
  -10.5280   -1.9050   -1.0240 N   0  0  0  0  0  0  0  0  0  0  0  0
   -9.4550   -1.4720   -1.9190 C   0  0  0  0  0  0  0  0  0  0  0  0
   -9.2820   -2.3940   -3.1270 C   0  0  0  0  0  0  0  0  0  0  0  0
   -7.8170   -2.5500   -3.5360 C   0  0  0  0  0  0  0  0  0  0  0  0
   -6.9720   -3.3210   -2.7550 C   0  0  0  0  0  0  0  0  0  0  0  0
   -5.6390   -3.4770   -3.1110 C   0  0  0  0  0  0  0  0  0  0  0  0
   -5.1940   -2.8390   -4.2640 C   0  0  0  0  0  0  0  0  0  0  0  0
   -6.0850   -2.0780   -5.0070 C   0  0  0  0  0  0  0  0  0  0  0  0
   -7.3470   -1.9600   -4.6270 N   0  0  0  0  0  0  0  0  0  0  0  0
  -12.1450   -0.9640   -2.3390 O   0  0  0  0  0  0  0  0  0  0  0  0
  -18.7610   -1.8760   -2.7390 F   0  0  0  0  0  0  0  0  0  0  0  0
  -18.4550    0.3250   -2.2750 F   0  0  0  0  0  0  0  0  0  0  0  0
  -19.1950   -1.1300   -0.7370 F   0  0  0  0  0  0  0  0  0  0  0  0
  -10.0453   -2.0069   -4.3181 C   0  0  0  0  0  0  0  0  0  0  0  0
   -9.8476   -3.8948   -2.8015 C   0  0  0  0  0  0  0  0  0  0  0  0
  -10.3451   -4.7154   -4.2851 S   0  0  0  0  0  0  0  0  0  0  0  0
   -9.5013   -4.3984   -4.8382 C   0  0  0  0  0  0  0  0  0  0  0  0
  -10.1067   -3.0918   -5.4927 C   0  0  0  0  0  0  0  0  0  0  0  0
  -11.1011   -5.6163   -4.2646 O   0  0  0  0  0  0  0  0  0  0  0  0
  1  2  2  0
  2  3  1  0
  2 16  1  0
  3  4  1  0
  3  6  2  0
  4  5  1  0
  6  7  1  0
  7 15  1  0
  7  8  1  0
 11 12  1  0
 12 28  1  0
 12 27  1  0
 12 26  1  0
 15 16  1  0
 15 25  2  0
 16 17  1  0
 17 18  1  0
 18 19  1  0
 18 29  1  0
 18 30  1  0
 30 31  1  0
 31 32  1  0
 29 33  1  0
 32 33  1  0
 31 34  2  0
  8  9  2  0
  9 10  1  0
 10 11  2  0
 11 13  1  0
 13 14  2  0
 14  8  1  0
 19 20  2  0
 20 21  1  0
 21 22  2  0
 22 23  1  0
 23 24  2  0
 24 19  1  0
M  END

$$$$
No_241-gen_results_new/Mpro_new_generate_500/2024-01-19-21-58-56/
     RDKit          3D

 32 35  0  0  0  0  0  0  0  0999 V2000
   -9.1300   -2.9100    0.4520 O   0  0  0  0  0  0  0  0  0  0  0  0
  -10.2490   -2.6420    0.1800 C   0  0  0  0  0  0  0  0  0  0  0  0
  -11.3800   -3.0650    1.0860 C   0  0  0  0  0  0  0  0  0  0  0  0
  -11.2000   -3.8390    2.3880 C   0  0  0  0  0  0  0  0  0  0  0  0
  -10.9900   -5.0690    2.3420 N   0  0  0  0  0  0  0  0  0  0  0  0
  -12.7310   -2.7290    0.7330 N   0  0  0  0  0  0  0  0  0  0  0  0
  -12.9960   -1.9940   -0.4510 N   0  0  0  0  0  0  0  0  0  0  0  0
  -14.3580   -1.6940   -0.7530 C   0  0  0  0  0  0  0  0  0  0  0  0
  -15.0390   -0.7180   -0.0560 C   0  0  0  0  0  0  0  0  0  0  0  0
  -16.3510   -0.4690   -0.3980 C   0  0  0  0  0  0  0  0  0  0  0  0
  -16.9430   -1.2030   -1.4080 C   0  0  0  0  0  0  0  0  0  0  0  0
  -18.3840   -0.9560   -1.8060 C   0  0  0  0  0  0  0  0  0  0  0  0
  -16.2510   -2.1690   -2.1000 C   0  0  0  0  0  0  0  0  0  0  0  0
  -14.9490   -2.4160   -1.7590 C   0  0  0  0  0  0  0  0  0  0  0  0
  -11.9050   -1.5730   -1.3540 C   0  0  0  0  0  0  0  0  0  0  0  0
  -10.5280   -1.9050   -1.0240 N   0  0  0  0  0  0  0  0  0  0  0  0
   -9.4550   -1.4720   -1.9190 C   0  0  0  0  0  0  0  0  0  0  0  0
   -9.2820   -2.3940   -3.1270 C   0  0  0  0  0  0  0  0  0  0  0  0
   -7.8170   -2.5500   -3.5360 C   0  0  0  0  0  0  0  0  0  0  0  0
   -6.9720   -3.3210   -2.7550 C   0  0  0  0  0  0  0  0  0  0  0  0
   -5.6390   -3.4770   -3.1110 C   0  0  0  0  0  0  0  0  0  0  0  0
   -5.1940   -2.8390   -4.2640 C   0  0  0  0  0  0  0  0  0  0  0  0
   -6.0850   -2.0780   -5.0070 C   0  0  0  0  0  0  0  0  0  0  0  0
   -7.3470   -1.9600   -4.6270 N   0  0  0  0  0  0  0  0  0  0  0  0
  -12.1450   -0.9640   -2.3390 O   0  0  0  0  0  0  0  0  0  0  0  0
  -18.7610   -1.8760   -2.7390 F   0  0  0  0  0  0  0  0  0  0  0  0
  -18.4550    0.3250   -2.2750 F   0  0  0  0  0  0  0  0  0  0  0  0
  -19.1950   -1.1300   -0.7370 F   0  0  0  0  0  0  0  0  0  0  0  0
  -10.1467   -3.0903   -3.8357 C   0  0  0  0  0  0  0  0  0  0  0  0
  -10.1748   -2.6832   -3.5186 O   0  0  0  0  0  0  0  0  0  0  0  0
  -10.7471   -2.9983   -4.5745 C   0  0  0  0  0  0  0  0  0  0  0  0
  -10.5503   -3.6142   -3.7226 C   0  0  0  0  0  0  0  0  0  0  0  0
  1  2  2  0
  2  3  1  0
  2 16  1  0
  3  4  1  0
  3  6  2  0
  4  5  1  0
  6  7  1  0
  7 15  1  0
  7  8  1  0
 11 12  1  0
 12 28  1  0
 12 27  1  0
 12 26  1  0
 15 16  1  0
 15 25  2  0
 16 17  1  0
 17 18  1  0
 18 19  1  0
 18 29  1  0
 29 30  1  0
 29 31  1  0
 30 32  1  0
 31 32  3  0
  8  9  2  0
  9 10  1  0
 10 11  2  0
 11 13  1  0
 13 14  2  0
 14  8  1  0
 19 20  2  0
 20 21  1  0
 21 22  2  0
 22 23  1  0
 23 24  2  0
 24 19  1  0
M  END

$$$$
No_242-gen_results_new/Mpro_new_generate_500/2024-01-19-21-58-56/
     RDKit          3D

 30 32  0  0  0  0  0  0  0  0999 V2000
   -9.1300   -2.9100    0.4520 O   0  0  0  0  0  0  0  0  0  0  0  0
  -10.2490   -2.6420    0.1800 C   0  0  0  0  0  0  0  0  0  0  0  0
  -11.3800   -3.0650    1.0860 C   0  0  0  0  0  0  0  0  0  0  0  0
  -11.2000   -3.8390    2.3880 C   0  0  0  0  0  0  0  0  0  0  0  0
  -10.9900   -5.0690    2.3420 N   0  0  0  0  0  0  0  0  0  0  0  0
  -12.7310   -2.7290    0.7330 N   0  0  0  0  0  0  0  0  0  0  0  0
  -12.9960   -1.9940   -0.4510 N   0  0  0  0  0  0  0  0  0  0  0  0
  -14.3580   -1.6940   -0.7530 C   0  0  0  0  0  0  0  0  0  0  0  0
  -15.0390   -0.7180   -0.0560 C   0  0  0  0  0  0  0  0  0  0  0  0
  -16.3510   -0.4690   -0.3980 C   0  0  0  0  0  0  0  0  0  0  0  0
  -16.9430   -1.2030   -1.4080 C   0  0  0  0  0  0  0  0  0  0  0  0
  -18.3840   -0.9560   -1.8060 C   0  0  0  0  0  0  0  0  0  0  0  0
  -16.2510   -2.1690   -2.1000 C   0  0  0  0  0  0  0  0  0  0  0  0
  -14.9490   -2.4160   -1.7590 C   0  0  0  0  0  0  0  0  0  0  0  0
  -11.9050   -1.5730   -1.3540 C   0  0  0  0  0  0  0  0  0  0  0  0
  -10.5280   -1.9050   -1.0240 N   0  0  0  0  0  0  0  0  0  0  0  0
   -9.4550   -1.4720   -1.9190 C   0  0  0  0  0  0  0  0  0  0  0  0
   -9.2820   -2.3940   -3.1270 C   0  0  0  0  0  0  0  0  0  0  0  0
   -7.8170   -2.5500   -3.5360 C   0  0  0  0  0  0  0  0  0  0  0  0
   -6.9720   -3.3210   -2.7550 C   0  0  0  0  0  0  0  0  0  0  0  0
   -5.6390   -3.4770   -3.1110 C   0  0  0  0  0  0  0  0  0  0  0  0
   -5.1940   -2.8390   -4.2640 C   0  0  0  0  0  0  0  0  0  0  0  0
   -6.0850   -2.0780   -5.0070 C   0  0  0  0  0  0  0  0  0  0  0  0
   -7.3470   -1.9600   -4.6270 N   0  0  0  0  0  0  0  0  0  0  0  0
  -12.1450   -0.9640   -2.3390 O   0  0  0  0  0  0  0  0  0  0  0  0
  -18.7610   -1.8760   -2.7390 F   0  0  0  0  0  0  0  0  0  0  0  0
  -18.4550    0.3250   -2.2750 F   0  0  0  0  0  0  0  0  0  0  0  0
  -19.1950   -1.1300   -0.7370 F   0  0  0  0  0  0  0  0  0  0  0  0
  -10.0899   -3.0088   -3.7244 O   0  0  0  0  0  0  0  0  0  0  0  0
  -16.7753   -3.1566   -3.2091 C   0  0  0  0  0  0  0  0  0  0  0  0
  1  2  2  0
  2  3  1  0
  2 16  1  0
  3  4  1  0
  3  6  2  0
  4  5  1  0
  6  7  1  0
  7 15  1  0
  7  8  1  0
 11 12  1  0
 12 28  1  0
 12 27  1  0
 12 26  1  0
 15 16  1  0
 15 25  2  0
 16 17  1  0
 17 18  1  0
 18 19  1  0
 18 29  2  0
 13 30  1  0
  8  9  2  0
  9 10  1  0
 10 11  2  0
 11 13  1  0
 13 14  2  0
 14  8  1  0
 19 20  2  0
 20 21  1  0
 21 22  2  0
 22 23  1  0
 23 24  2  0
 24 19  1  0
M  END

$$$$
No_243-gen_results_new/Mpro_new_generate_500/2024-01-19-21-58-56/
     RDKit          3D

 31 33  0  0  0  0  0  0  0  0999 V2000
   -9.1300   -2.9100    0.4520 O   0  0  0  0  0  0  0  0  0  0  0  0
  -10.2490   -2.6420    0.1800 C   0  0  0  0  0  0  0  0  0  0  0  0
  -11.3800   -3.0650    1.0860 C   0  0  0  0  0  0  0  0  0  0  0  0
  -11.2000   -3.8390    2.3880 C   0  0  0  0  0  0  0  0  0  0  0  0
  -10.9900   -5.0690    2.3420 N   0  0  0  0  0  0  0  0  0  0  0  0
  -12.7310   -2.7290    0.7330 N   0  0  0  0  0  0  0  0  0  0  0  0
  -12.9960   -1.9940   -0.4510 N   0  0  0  0  0  0  0  0  0  0  0  0
  -14.3580   -1.6940   -0.7530 C   0  0  0  0  0  0  0  0  0  0  0  0
  -15.0390   -0.7180   -0.0560 C   0  0  0  0  0  0  0  0  0  0  0  0
  -16.3510   -0.4690   -0.3980 C   0  0  0  0  0  0  0  0  0  0  0  0
  -16.9430   -1.2030   -1.4080 C   0  0  0  0  0  0  0  0  0  0  0  0
  -18.3840   -0.9560   -1.8060 C   0  0  0  0  0  0  0  0  0  0  0  0
  -16.2510   -2.1690   -2.1000 C   0  0  0  0  0  0  0  0  0  0  0  0
  -14.9490   -2.4160   -1.7590 C   0  0  0  0  0  0  0  0  0  0  0  0
  -11.9050   -1.5730   -1.3540 C   0  0  0  0  0  0  0  0  0  0  0  0
  -10.5280   -1.9050   -1.0240 N   0  0  0  0  0  0  0  0  0  0  0  0
   -9.4550   -1.4720   -1.9190 C   0  0  0  0  0  0  0  0  0  0  0  0
   -9.2820   -2.3940   -3.1270 C   0  0  0  0  0  0  0  0  0  0  0  0
   -7.8170   -2.5500   -3.5360 C   0  0  0  0  0  0  0  0  0  0  0  0
   -6.9720   -3.3210   -2.7550 C   0  0  0  0  0  0  0  0  0  0  0  0
   -5.6390   -3.4770   -3.1110 C   0  0  0  0  0  0  0  0  0  0  0  0
   -5.1940   -2.8390   -4.2640 C   0  0  0  0  0  0  0  0  0  0  0  0
   -6.0850   -2.0780   -5.0070 C   0  0  0  0  0  0  0  0  0  0  0  0
   -7.3470   -1.9600   -4.6270 N   0  0  0  0  0  0  0  0  0  0  0  0
  -12.1450   -0.9640   -2.3390 O   0  0  0  0  0  0  0  0  0  0  0  0
  -18.7610   -1.8760   -2.7390 F   0  0  0  0  0  0  0  0  0  0  0  0
  -18.4550    0.3250   -2.2750 F   0  0  0  0  0  0  0  0  0  0  0  0
  -19.1950   -1.1300   -0.7370 F   0  0  0  0  0  0  0  0  0  0  0  0
   -9.7561   -3.5765   -2.9053 O   0  0  0  0  0  0  0  0  0  0  0  0
  -10.1152   -2.4557   -3.9680 F   0  0  0  0  0  0  0  0  0  0  0  0
  -10.7920   -4.4339   -3.4481 C   0  0  0  0  0  0  0  0  0  0  0  0
  1  2  2  0
  2  3  1  0
  2 16  1  0
  3  4  1  0
  3  6  2  0
  4  5  1  0
  6  7  1  0
  7 15  1  0
  7  8  1  0
 11 12  1  0
 12 28  1  0
 12 27  1  0
 12 26  1  0
 15 16  1  0
 15 25  2  0
 16 17  1  0
 17 18  1  0
 18 19  1  0
 18 29  1  0
 18 30  1  0
 29 31  1  0
  8  9  2  0
  9 10  1  0
 10 11  2  0
 11 13  1  0
 13 14  2  0
 14  8  1  0
 19 20  2  0
 20 21  1  0
 21 22  2  0
 22 23  1  0
 23 24  2  0
 24 19  1  0
M  END

$$$$
No_244-gen_results_new/Mpro_new_generate_500/2024-01-19-21-58-56/
     RDKit          3D

 33 35  0  0  0  0  0  0  0  0999 V2000
   -9.1300   -2.9100    0.4520 O   0  0  0  0  0  0  0  0  0  0  0  0
  -10.2490   -2.6420    0.1800 C   0  0  0  0  0  0  0  0  0  0  0  0
  -11.3800   -3.0650    1.0860 C   0  0  0  0  0  0  0  0  0  0  0  0
  -11.2000   -3.8390    2.3880 C   0  0  0  0  0  0  0  0  0  0  0  0
  -10.9900   -5.0690    2.3420 N   0  0  0  0  0  0  0  0  0  0  0  0
  -12.7310   -2.7290    0.7330 N   0  0  0  0  0  0  0  0  0  0  0  0
  -12.9960   -1.9940   -0.4510 N   0  0  0  0  0  0  0  0  0  0  0  0
  -14.3580   -1.6940   -0.7530 C   0  0  0  0  0  0  0  0  0  0  0  0
  -15.0390   -0.7180   -0.0560 C   0  0  0  0  0  0  0  0  0  0  0  0
  -16.3510   -0.4690   -0.3980 C   0  0  0  0  0  0  0  0  0  0  0  0
  -16.9430   -1.2030   -1.4080 C   0  0  0  0  0  0  0  0  0  0  0  0
  -18.3840   -0.9560   -1.8060 C   0  0  0  0  0  0  0  0  0  0  0  0
  -16.2510   -2.1690   -2.1000 C   0  0  0  0  0  0  0  0  0  0  0  0
  -14.9490   -2.4160   -1.7590 C   0  0  0  0  0  0  0  0  0  0  0  0
  -11.9050   -1.5730   -1.3540 C   0  0  0  0  0  0  0  0  0  0  0  0
  -10.5280   -1.9050   -1.0240 N   0  0  0  0  0  0  0  0  0  0  0  0
   -9.4550   -1.4720   -1.9190 C   0  0  0  0  0  0  0  0  0  0  0  0
   -9.2820   -2.3940   -3.1270 C   0  0  0  0  0  0  0  0  0  0  0  0
   -7.8170   -2.5500   -3.5360 C   0  0  0  0  0  0  0  0  0  0  0  0
   -6.9720   -3.3210   -2.7550 C   0  0  0  0  0  0  0  0  0  0  0  0
   -5.6390   -3.4770   -3.1110 C   0  0  0  0  0  0  0  0  0  0  0  0
   -5.1940   -2.8390   -4.2640 C   0  0  0  0  0  0  0  0  0  0  0  0
   -6.0850   -2.0780   -5.0070 C   0  0  0  0  0  0  0  0  0  0  0  0
   -7.3470   -1.9600   -4.6270 N   0  0  0  0  0  0  0  0  0  0  0  0
  -12.1450   -0.9640   -2.3390 O   0  0  0  0  0  0  0  0  0  0  0  0
  -18.7610   -1.8760   -2.7390 F   0  0  0  0  0  0  0  0  0  0  0  0
  -18.4550    0.3250   -2.2750 F   0  0  0  0  0  0  0  0  0  0  0  0
  -19.1950   -1.1300   -0.7370 F   0  0  0  0  0  0  0  0  0  0  0  0
  -10.0453   -2.0069   -4.3181 C   0  0  0  0  0  0  0  0  0  0  0  0
   -9.8476   -3.8948   -2.8015 C   0  0  0  0  0  0  0  0  0  0  0  0
   -9.1680   -4.8526   -2.1325 C   0  0  0  0  0  0  0  0  0  0  0  0
  -10.7590   -4.4411   -3.6750 C   0  0  0  0  0  0  0  0  0  0  0  0
   -8.5259   -5.8820   -2.7460 C   0  0  0  0  0  0  0  0  0  0  0  0
  1  2  2  0
  2  3  1  0
  2 16  1  0
  3  4  1  0
  3  6  2  0
  4  5  1  0
  6  7  1  0
  7 15  1  0
  7  8  1  0
 11 12  1  0
 12 28  1  0
 12 27  1  0
 12 26  1  0
 15 16  1  0
 15 25  2  0
 16 17  1  0
 17 18  1  0
 18 19  1  0
 18 29  1  0
 18 30  1  0
 30 31  1  0
 30 32  1  0
 31 33  2  0
  8  9  2  0
  9 10  1  0
 10 11  2  0
 11 13  1  0
 13 14  2  0
 14  8  1  0
 19 20  2  0
 20 21  1  0
 21 22  2  0
 22 23  1  0
 23 24  2  0
 24 19  1  0
M  END

$$$$
No_245-gen_results_new/Mpro_new_generate_500/2024-01-19-21-58-56/
     RDKit          3D

 31 33  0  0  0  0  0  0  0  0999 V2000
   -9.1300   -2.9100    0.4520 O   0  0  0  0  0  0  0  0  0  0  0  0
  -10.2490   -2.6420    0.1800 C   0  0  0  0  0  0  0  0  0  0  0  0
  -11.3800   -3.0650    1.0860 C   0  0  0  0  0  0  0  0  0  0  0  0
  -11.2000   -3.8390    2.3880 C   0  0  0  0  0  0  0  0  0  0  0  0
  -10.9900   -5.0690    2.3420 N   0  0  0  0  0  0  0  0  0  0  0  0
  -12.7310   -2.7290    0.7330 N   0  0  0  0  0  0  0  0  0  0  0  0
  -12.9960   -1.9940   -0.4510 N   0  0  0  0  0  0  0  0  0  0  0  0
  -14.3580   -1.6940   -0.7530 C   0  0  0  0  0  0  0  0  0  0  0  0
  -15.0390   -0.7180   -0.0560 C   0  0  0  0  0  0  0  0  0  0  0  0
  -16.3510   -0.4690   -0.3980 C   0  0  0  0  0  0  0  0  0  0  0  0
  -16.9430   -1.2030   -1.4080 C   0  0  0  0  0  0  0  0  0  0  0  0
  -18.3840   -0.9560   -1.8060 C   0  0  0  0  0  0  0  0  0  0  0  0
  -16.2510   -2.1690   -2.1000 C   0  0  0  0  0  0  0  0  0  0  0  0
  -14.9490   -2.4160   -1.7590 C   0  0  0  0  0  0  0  0  0  0  0  0
  -11.9050   -1.5730   -1.3540 C   0  0  0  0  0  0  0  0  0  0  0  0
  -10.5280   -1.9050   -1.0240 N   0  0  0  0  0  0  0  0  0  0  0  0
   -9.4550   -1.4720   -1.9190 C   0  0  0  0  0  0  0  0  0  0  0  0
   -9.2820   -2.3940   -3.1270 C   0  0  0  0  0  0  0  0  0  0  0  0
   -7.8170   -2.5500   -3.5360 C   0  0  0  0  0  0  0  0  0  0  0  0
   -6.9720   -3.3210   -2.7550 C   0  0  0  0  0  0  0  0  0  0  0  0
   -5.6390   -3.4770   -3.1110 C   0  0  0  0  0  0  0  0  0  0  0  0
   -5.1940   -2.8390   -4.2640 C   0  0  0  0  0  0  0  0  0  0  0  0
   -6.0850   -2.0780   -5.0070 C   0  0  0  0  0  0  0  0  0  0  0  0
   -7.3470   -1.9600   -4.6270 N   0  0  0  0  0  0  0  0  0  0  0  0
  -12.1450   -0.9640   -2.3390 O   0  0  0  0  0  0  0  0  0  0  0  0
  -18.7610   -1.8760   -2.7390 F   0  0  0  0  0  0  0  0  0  0  0  0
  -18.4550    0.3250   -2.2750 F   0  0  0  0  0  0  0  0  0  0  0  0
  -19.1950   -1.1300   -0.7370 F   0  0  0  0  0  0  0  0  0  0  0  0
   -9.7920   -3.7475   -2.8656 C   0  0  0  0  0  0  0  0  0  0  0  0
  -10.1112   -2.1676   -4.1288 O   0  0  0  0  0  0  0  0  0  0  0  0
  -10.9497   -3.1465   -4.8669 C   0  0  0  0  0  0  0  0  0  0  0  0
  1  2  2  0
  2  3  1  0
  2 16  1  0
  3  4  1  0
  3  6  2  0
  4  5  1  0
  6  7  1  0
  7 15  1  0
  7  8  1  0
 11 12  1  0
 12 28  1  0
 12 27  1  0
 12 26  1  0
 15 16  1  0
 15 25  2  0
 16 17  1  0
 17 18  1  0
 18 19  1  0
 18 29  1  0
 18 30  1  0
 30 31  1  0
  8  9  2  0
  9 10  1  0
 10 11  2  0
 11 13  1  0
 13 14  2  0
 14  8  1  0
 19 20  2  0
 20 21  1  0
 21 22  2  0
 22 23  1  0
 23 24  2  0
 24 19  1  0
M  END

$$$$
No_246-gen_results_new/Mpro_new_generate_500/2024-01-19-21-58-56/
     RDKit          3D

 35 38  0  0  0  0  0  0  0  0999 V2000
   -9.1300   -2.9100    0.4520 O   0  0  0  0  0  0  0  0  0  0  0  0
  -10.2490   -2.6420    0.1800 C   0  0  0  0  0  0  0  0  0  0  0  0
  -11.3800   -3.0650    1.0860 C   0  0  0  0  0  0  0  0  0  0  0  0
  -11.2000   -3.8390    2.3880 C   0  0  0  0  0  0  0  0  0  0  0  0
  -10.9900   -5.0690    2.3420 N   0  0  0  0  0  0  0  0  0  0  0  0
  -12.7310   -2.7290    0.7330 N   0  0  0  0  0  0  0  0  0  0  0  0
  -12.9960   -1.9940   -0.4510 N   0  0  0  0  0  0  0  0  0  0  0  0
  -14.3580   -1.6940   -0.7530 C   0  0  0  0  0  0  0  0  0  0  0  0
  -15.0390   -0.7180   -0.0560 C   0  0  0  0  0  0  0  0  0  0  0  0
  -16.3510   -0.4690   -0.3980 C   0  0  0  0  0  0  0  0  0  0  0  0
  -16.9430   -1.2030   -1.4080 C   0  0  0  0  0  0  0  0  0  0  0  0
  -18.3840   -0.9560   -1.8060 C   0  0  0  0  0  0  0  0  0  0  0  0
  -16.2510   -2.1690   -2.1000 C   0  0  0  0  0  0  0  0  0  0  0  0
  -14.9490   -2.4160   -1.7590 C   0  0  0  0  0  0  0  0  0  0  0  0
  -11.9050   -1.5730   -1.3540 C   0  0  0  0  0  0  0  0  0  0  0  0
  -10.5280   -1.9050   -1.0240 N   0  0  0  0  0  0  0  0  0  0  0  0
   -9.4550   -1.4720   -1.9190 C   0  0  0  0  0  0  0  0  0  0  0  0
   -9.2820   -2.3940   -3.1270 C   0  0  0  0  0  0  0  0  0  0  0  0
   -7.8170   -2.5500   -3.5360 C   0  0  0  0  0  0  0  0  0  0  0  0
   -6.9720   -3.3210   -2.7550 C   0  0  0  0  0  0  0  0  0  0  0  0
   -5.6390   -3.4770   -3.1110 C   0  0  0  0  0  0  0  0  0  0  0  0
   -5.1940   -2.8390   -4.2640 C   0  0  0  0  0  0  0  0  0  0  0  0
   -6.0850   -2.0780   -5.0070 C   0  0  0  0  0  0  0  0  0  0  0  0
   -7.3470   -1.9600   -4.6270 N   0  0  0  0  0  0  0  0  0  0  0  0
  -12.1450   -0.9640   -2.3390 O   0  0  0  0  0  0  0  0  0  0  0  0
  -18.7610   -1.8760   -2.7390 F   0  0  0  0  0  0  0  0  0  0  0  0
  -18.4550    0.3250   -2.2750 F   0  0  0  0  0  0  0  0  0  0  0  0
  -19.1950   -1.1300   -0.7370 F   0  0  0  0  0  0  0  0  0  0  0  0
  -10.0453   -2.0069   -4.3181 C   0  0  0  0  0  0  0  0  0  0  0  0
   -9.8476   -3.8948   -2.8015 C   0  0  0  0  0  0  0  0  0  0  0  0
  -10.1714   -4.7331   -3.9309 C   0  0  0  0  0  0  0  0  0  0  0  0
  -10.1706   -6.0308   -3.5979 O   0  0  0  0  0  0  0  0  0  0  0  0
   -9.4459   -6.4041   -2.5012 C   0  0  0  0  0  0  0  0  0  0  0  0
   -8.5360   -7.2728   -2.4955 F   0  0  0  0  0  0  0  0  0  0  0  0
   -8.8460   -4.8847   -2.2875 C   0  0  0  0  0  0  0  0  0  0  0  0
  1  2  2  0
  2  3  1  0
  2 16  1  0
  3  4  1  0
  3  6  2  0
  4  5  1  0
  6  7  1  0
  7 15  1  0
  7  8  1  0
 11 12  1  0
 12 28  1  0
 12 27  1  0
 12 26  1  0
 15 16  1  0
 15 25  2  0
 16 17  1  0
 17 18  1  0
 18 19  1  0
 18 29  1  0
 18 30  1  0
 30 31  2  0
 31 32  1  0
 32 33  1  0
 33 34  1  0
 30 35  1  0
 33 35  1  0
  8  9  2  0
  9 10  1  0
 10 11  2  0
 11 13  1  0
 13 14  2  0
 14  8  1  0
 19 20  2  0
 20 21  1  0
 21 22  2  0
 22 23  1  0
 23 24  2  0
 24 19  1  0
M  END

$$$$
No_247-gen_results_new/Mpro_new_generate_500/2024-01-19-21-58-56/
     RDKit          3D

 35 37  0  0  0  0  0  0  0  0999 V2000
   -9.1300   -2.9100    0.4520 O   0  0  0  0  0  0  0  0  0  0  0  0
  -10.2490   -2.6420    0.1800 C   0  0  0  0  0  0  0  0  0  0  0  0
  -11.3800   -3.0650    1.0860 C   0  0  0  0  0  0  0  0  0  0  0  0
  -11.2000   -3.8390    2.3880 C   0  0  0  0  0  0  0  0  0  0  0  0
  -10.9900   -5.0690    2.3420 N   0  0  0  0  0  0  0  0  0  0  0  0
  -12.7310   -2.7290    0.7330 N   0  0  0  0  0  0  0  0  0  0  0  0
  -12.9960   -1.9940   -0.4510 N   0  0  0  0  0  0  0  0  0  0  0  0
  -14.3580   -1.6940   -0.7530 C   0  0  0  0  0  0  0  0  0  0  0  0
  -15.0390   -0.7180   -0.0560 C   0  0  0  0  0  0  0  0  0  0  0  0
  -16.3510   -0.4690   -0.3980 C   0  0  0  0  0  0  0  0  0  0  0  0
  -16.9430   -1.2030   -1.4080 C   0  0  0  0  0  0  0  0  0  0  0  0
  -18.3840   -0.9560   -1.8060 C   0  0  0  0  0  0  0  0  0  0  0  0
  -16.2510   -2.1690   -2.1000 C   0  0  0  0  0  0  0  0  0  0  0  0
  -14.9490   -2.4160   -1.7590 C   0  0  0  0  0  0  0  0  0  0  0  0
  -11.9050   -1.5730   -1.3540 C   0  0  0  0  0  0  0  0  0  0  0  0
  -10.5280   -1.9050   -1.0240 N   0  0  0  0  0  0  0  0  0  0  0  0
   -9.4550   -1.4720   -1.9190 C   0  0  0  0  0  0  0  0  0  0  0  0
   -9.2820   -2.3940   -3.1270 C   0  0  0  0  0  0  0  0  0  0  0  0
   -7.8170   -2.5500   -3.5360 C   0  0  0  0  0  0  0  0  0  0  0  0
   -6.9720   -3.3210   -2.7550 C   0  0  0  0  0  0  0  0  0  0  0  0
   -5.6390   -3.4770   -3.1110 C   0  0  0  0  0  0  0  0  0  0  0  0
   -5.1940   -2.8390   -4.2640 C   0  0  0  0  0  0  0  0  0  0  0  0
   -6.0850   -2.0780   -5.0070 C   0  0  0  0  0  0  0  0  0  0  0  0
   -7.3470   -1.9600   -4.6270 N   0  0  0  0  0  0  0  0  0  0  0  0
  -12.1450   -0.9640   -2.3390 O   0  0  0  0  0  0  0  0  0  0  0  0
  -18.7610   -1.8760   -2.7390 F   0  0  0  0  0  0  0  0  0  0  0  0
  -18.4550    0.3250   -2.2750 F   0  0  0  0  0  0  0  0  0  0  0  0
  -19.1950   -1.1300   -0.7370 F   0  0  0  0  0  0  0  0  0  0  0  0
  -10.0453   -2.0069   -4.3181 C   0  0  0  0  0  0  0  0  0  0  0  0
   -9.8476   -3.8948   -2.8015 C   0  0  0  0  0  0  0  0  0  0  0  0
   -9.2607   -4.5187   -1.7349 F   0  0  0  0  0  0  0  0  0  0  0  0
  -11.1056   -3.8269   -2.4475 F   0  0  0  0  0  0  0  0  0  0  0  0
   -9.8483   -4.8531   -4.0901 C   0  0  0  0  0  0  0  0  0  0  0  0
   -8.6100   -5.4030   -4.0303 O   0  0  0  0  0  0  0  0  0  0  0  0
  -10.7403   -5.0647   -5.0690 C   0  0  0  0  0  0  0  0  0  0  0  0
  1  2  2  0
  2  3  1  0
  2 16  1  0
  3  4  1  0
  3  6  2  0
  4  5  1  0
  6  7  1  0
  7 15  1  0
  7  8  1  0
 11 12  1  0
 12 28  1  0
 12 27  1  0
 12 26  1  0
 15 16  1  0
 15 25  2  0
 16 17  1  0
 17 18  1  0
 18 19  1  0
 18 29  1  0
 18 30  1  0
 30 31  1  0
 30 32  1  0
 30 33  1  0
 33 34  2  0
 33 35  1  0
  8  9  2  0
  9 10  1  0
 10 11  2  0
 11 13  1  0
 13 14  2  0
 14  8  1  0
 19 20  2  0
 20 21  1  0
 21 22  2  0
 22 23  1  0
 23 24  2  0
 24 19  1  0
M  END

$$$$
No_248-gen_results_new/Mpro_new_generate_500/2024-01-19-21-58-56/
     RDKit          3D

 35 38  0  0  0  0  0  0  0  0999 V2000
   -9.1300   -2.9100    0.4520 O   0  0  0  0  0  0  0  0  0  0  0  0
  -10.2490   -2.6420    0.1800 C   0  0  0  0  0  0  0  0  0  0  0  0
  -11.3800   -3.0650    1.0860 C   0  0  0  0  0  0  0  0  0  0  0  0
  -11.2000   -3.8390    2.3880 C   0  0  0  0  0  0  0  0  0  0  0  0
  -10.9900   -5.0690    2.3420 N   0  0  0  0  0  0  0  0  0  0  0  0
  -12.7310   -2.7290    0.7330 N   0  0  0  0  0  0  0  0  0  0  0  0
  -12.9960   -1.9940   -0.4510 N   0  0  0  0  0  0  0  0  0  0  0  0
  -14.3580   -1.6940   -0.7530 C   0  0  0  0  0  0  0  0  0  0  0  0
  -15.0390   -0.7180   -0.0560 C   0  0  0  0  0  0  0  0  0  0  0  0
  -16.3510   -0.4690   -0.3980 C   0  0  0  0  0  0  0  0  0  0  0  0
  -16.9430   -1.2030   -1.4080 C   0  0  0  0  0  0  0  0  0  0  0  0
  -18.3840   -0.9560   -1.8060 C   0  0  0  0  0  0  0  0  0  0  0  0
  -16.2510   -2.1690   -2.1000 C   0  0  0  0  0  0  0  0  0  0  0  0
  -14.9490   -2.4160   -1.7590 C   0  0  0  0  0  0  0  0  0  0  0  0
  -11.9050   -1.5730   -1.3540 C   0  0  0  0  0  0  0  0  0  0  0  0
  -10.5280   -1.9050   -1.0240 N   0  0  0  0  0  0  0  0  0  0  0  0
   -9.4550   -1.4720   -1.9190 C   0  0  0  0  0  0  0  0  0  0  0  0
   -9.2820   -2.3940   -3.1270 C   0  0  0  0  0  0  0  0  0  0  0  0
   -7.8170   -2.5500   -3.5360 C   0  0  0  0  0  0  0  0  0  0  0  0
   -6.9720   -3.3210   -2.7550 C   0  0  0  0  0  0  0  0  0  0  0  0
   -5.6390   -3.4770   -3.1110 C   0  0  0  0  0  0  0  0  0  0  0  0
   -5.1940   -2.8390   -4.2640 C   0  0  0  0  0  0  0  0  0  0  0  0
   -6.0850   -2.0780   -5.0070 C   0  0  0  0  0  0  0  0  0  0  0  0
   -7.3470   -1.9600   -4.6270 N   0  0  0  0  0  0  0  0  0  0  0  0
  -12.1450   -0.9640   -2.3390 O   0  0  0  0  0  0  0  0  0  0  0  0
  -18.7610   -1.8760   -2.7390 F   0  0  0  0  0  0  0  0  0  0  0  0
  -18.4550    0.3250   -2.2750 F   0  0  0  0  0  0  0  0  0  0  0  0
  -19.1950   -1.1300   -0.7370 F   0  0  0  0  0  0  0  0  0  0  0  0
  -10.0453   -2.0069   -4.3181 C   0  0  0  0  0  0  0  0  0  0  0  0
   -9.8476   -3.8948   -2.8015 C   0  0  0  0  0  0  0  0  0  0  0  0
  -10.1714   -4.7331   -3.9309 C   0  0  0  0  0  0  0  0  0  0  0  0
  -10.6131   -4.1472   -4.9938 O   0  0  0  0  0  0  0  0  0  0  0  0
  -10.9143   -2.8234   -5.0615 C   0  0  0  0  0  0  0  0  0  0  0  0
  -11.1498   -2.3374   -6.5157 C   0  0  0  0  0  0  0  0  0  0  0  0
  -11.7781   -1.1351   -6.5937 C   0  0  0  0  0  0  0  0  0  0  0  0
  1  2  2  0
  2  3  1  0
  2 16  1  0
  3  4  1  0
  3  6  2  0
  4  5  1  0
  6  7  1  0
  7 15  1  0
  7  8  1  0
 11 12  1  0
 12 28  1  0
 12 27  1  0
 12 26  1  0
 15 16  1  0
 15 25  2  0
 16 17  1  0
 17 18  1  0
 18 19  1  0
 18 29  1  0
 18 30  1  0
 30 31  2  0
 31 32  1  0
 29 33  2  0
 32 33  1  0
 33 34  1  0
 34 35  1  0
  8  9  2  0
  9 10  1  0
 10 11  2  0
 11 13  1  0
 13 14  2  0
 14  8  1  0
 19 20  2  0
 20 21  1  0
 21 22  2  0
 22 23  1  0
 23 24  2  0
 24 19  1  0
M  END

$$$$
No_249-gen_results_new/Mpro_new_generate_500/2024-01-19-21-58-56/
     RDKit          3D

 35 37  0  0  0  0  0  0  0  0999 V2000
   -9.1300   -2.9100    0.4520 O   0  0  0  0  0  0  0  0  0  0  0  0
  -10.2490   -2.6420    0.1800 C   0  0  0  0  0  0  0  0  0  0  0  0
  -11.3800   -3.0650    1.0860 C   0  0  0  0  0  0  0  0  0  0  0  0
  -11.2000   -3.8390    2.3880 C   0  0  0  0  0  0  0  0  0  0  0  0
  -10.9900   -5.0690    2.3420 N   0  0  0  0  0  0  0  0  0  0  0  0
  -12.7310   -2.7290    0.7330 N   0  0  0  0  0  0  0  0  0  0  0  0
  -12.9960   -1.9940   -0.4510 N   0  0  0  0  0  0  0  0  0  0  0  0
  -14.3580   -1.6940   -0.7530 C   0  0  0  0  0  0  0  0  0  0  0  0
  -15.0390   -0.7180   -0.0560 C   0  0  0  0  0  0  0  0  0  0  0  0
  -16.3510   -0.4690   -0.3980 C   0  0  0  0  0  0  0  0  0  0  0  0
  -16.9430   -1.2030   -1.4080 C   0  0  0  0  0  0  0  0  0  0  0  0
  -18.3840   -0.9560   -1.8060 C   0  0  0  0  0  0  0  0  0  0  0  0
  -16.2510   -2.1690   -2.1000 C   0  0  0  0  0  0  0  0  0  0  0  0
  -14.9490   -2.4160   -1.7590 C   0  0  0  0  0  0  0  0  0  0  0  0
  -11.9050   -1.5730   -1.3540 C   0  0  0  0  0  0  0  0  0  0  0  0
  -10.5280   -1.9050   -1.0240 N   0  0  0  0  0  0  0  0  0  0  0  0
   -9.4550   -1.4720   -1.9190 C   0  0  0  0  0  0  0  0  0  0  0  0
   -9.2820   -2.3940   -3.1270 C   0  0  0  0  0  0  0  0  0  0  0  0
   -7.8170   -2.5500   -3.5360 C   0  0  0  0  0  0  0  0  0  0  0  0
   -6.9720   -3.3210   -2.7550 C   0  0  0  0  0  0  0  0  0  0  0  0
   -5.6390   -3.4770   -3.1110 C   0  0  0  0  0  0  0  0  0  0  0  0
   -5.1940   -2.8390   -4.2640 C   0  0  0  0  0  0  0  0  0  0  0  0
   -6.0850   -2.0780   -5.0070 C   0  0  0  0  0  0  0  0  0  0  0  0
   -7.3470   -1.9600   -4.6270 N   0  0  0  0  0  0  0  0  0  0  0  0
  -12.1450   -0.9640   -2.3390 O   0  0  0  0  0  0  0  0  0  0  0  0
  -18.7610   -1.8760   -2.7390 F   0  0  0  0  0  0  0  0  0  0  0  0
  -18.4550    0.3250   -2.2750 F   0  0  0  0  0  0  0  0  0  0  0  0
  -19.1950   -1.1300   -0.7370 F   0  0  0  0  0  0  0  0  0  0  0  0
   -9.7920   -3.7475   -2.8656 C   0  0  0  0  0  0  0  0  0  0  0  0
  -10.0717   -1.8029   -4.3549 C   0  0  0  0  0  0  0  0  0  0  0  0
  -10.0419   -4.6597   -4.1091 C   0  0  0  0  0  0  0  0  0  0  0  0
   -9.7679   -6.0897   -3.9415 C   0  0  0  0  0  0  0  0  0  0  0  0
   -8.3164   -6.2877   -4.4525 C   0  0  0  0  0  0  0  0  0  0  0  0
   -7.5211   -7.0770   -3.5198 C   0  0  0  0  0  0  0  0  0  0  0  0
   -6.2378   -7.4440   -3.9427 C   0  0  0  0  0  0  0  0  0  0  0  0
  1  2  2  0
  2  3  1  0
  2 16  1  0
  3  4  1  0
  3  6  2  0
  4  5  1  0
  6  7  1  0
  7 15  1  0
  7  8  1  0
 11 12  1  0
 12 28  1  0
 12 27  1  0
 12 26  1  0
 15 16  1  0
 15 25  2  0
 16 17  1  0
 17 18  1  0
 18 19  1  0
 18 29  1  0
 18 30  1  0
 29 31  2  3
 31 32  1  0
 32 33  1  0
 33 34  2  3
 34 35  1  0
  8  9  2  0
  9 10  1  0
 10 11  2  0
 11 13  1  0
 13 14  2  0
 14  8  1  0
 19 20  2  0
 20 21  1  0
 21 22  2  0
 22 23  1  0
 23 24  2  0
 24 19  1  0
M  END

$$$$
No_250-gen_results_new/Mpro_new_generate_500/2024-01-19-21-58-56/
     RDKit          3D

 32 34  0  0  0  0  0  0  0  0999 V2000
   -9.1300   -2.9100    0.4520 O   0  0  0  0  0  0  0  0  0  0  0  0
  -10.2490   -2.6420    0.1800 C   0  0  0  0  0  0  0  0  0  0  0  0
  -11.3800   -3.0650    1.0860 C   0  0  0  0  0  0  0  0  0  0  0  0
  -11.2000   -3.8390    2.3880 C   0  0  0  0  0  0  0  0  0  0  0  0
  -10.9900   -5.0690    2.3420 N   0  0  0  0  0  0  0  0  0  0  0  0
  -12.7310   -2.7290    0.7330 N   0  0  0  0  0  0  0  0  0  0  0  0
  -12.9960   -1.9940   -0.4510 N   0  0  0  0  0  0  0  0  0  0  0  0
  -14.3580   -1.6940   -0.7530 C   0  0  0  0  0  0  0  0  0  0  0  0
  -15.0390   -0.7180   -0.0560 C   0  0  0  0  0  0  0  0  0  0  0  0
  -16.3510   -0.4690   -0.3980 C   0  0  0  0  0  0  0  0  0  0  0  0
  -16.9430   -1.2030   -1.4080 C   0  0  0  0  0  0  0  0  0  0  0  0
  -18.3840   -0.9560   -1.8060 C   0  0  0  0  0  0  0  0  0  0  0  0
  -16.2510   -2.1690   -2.1000 C   0  0  0  0  0  0  0  0  0  0  0  0
  -14.9490   -2.4160   -1.7590 C   0  0  0  0  0  0  0  0  0  0  0  0
  -11.9050   -1.5730   -1.3540 C   0  0  0  0  0  0  0  0  0  0  0  0
  -10.5280   -1.9050   -1.0240 N   0  0  0  0  0  0  0  0  0  0  0  0
   -9.4550   -1.4720   -1.9190 C   0  0  0  0  0  0  0  0  0  0  0  0
   -9.2820   -2.3940   -3.1270 C   0  0  0  0  0  0  0  0  0  0  0  0
   -7.8170   -2.5500   -3.5360 C   0  0  0  0  0  0  0  0  0  0  0  0
   -6.9720   -3.3210   -2.7550 C   0  0  0  0  0  0  0  0  0  0  0  0
   -5.6390   -3.4770   -3.1110 C   0  0  0  0  0  0  0  0  0  0  0  0
   -5.1940   -2.8390   -4.2640 C   0  0  0  0  0  0  0  0  0  0  0  0
   -6.0850   -2.0780   -5.0070 C   0  0  0  0  0  0  0  0  0  0  0  0
   -7.3470   -1.9600   -4.6270 N   0  0  0  0  0  0  0  0  0  0  0  0
  -12.1450   -0.9640   -2.3390 O   0  0  0  0  0  0  0  0  0  0  0  0
  -18.7610   -1.8760   -2.7390 F   0  0  0  0  0  0  0  0  0  0  0  0
  -18.4550    0.3250   -2.2750 F   0  0  0  0  0  0  0  0  0  0  0  0
  -19.1950   -1.1300   -0.7370 F   0  0  0  0  0  0  0  0  0  0  0  0
  -10.1467   -3.0903   -3.8357 C   0  0  0  0  0  0  0  0  0  0  0  0
  -10.1681   -2.5855   -3.6007 C   0  0  0  0  0  0  0  0  0  0  0  0
  -10.4499   -1.5957   -4.9129 C   0  0  0  0  0  0  0  0  0  0  0  0
  -11.1233   -3.6230   -3.8919 F   0  0  0  0  0  0  0  0  0  0  0  0
  1  2  2  0
  2  3  1  0
  2 16  1  0
  3  4  1  0
  3  6  2  0
  4  5  1  0
  6  7  1  0
  7 15  1  0
  7  8  1  0
 11 12  1  0
 12 28  1  0
 12 27  1  0
 12 26  1  0
 15 16  1  0
 15 25  2  0
 16 17  1  0
 17 18  1  0
 18 19  1  0
 18 29  1  0
 29 30  1  0
 30 31  2  0
 29 32  1  0
  8  9  2  0
  9 10  1  0
 10 11  2  0
 11 13  1  0
 13 14  2  0
 14  8  1  0
 19 20  2  0
 20 21  1  0
 21 22  2  0
 22 23  1  0
 23 24  2  0
 24 19  1  0
M  END

$$$$
No_251-gen_results_new/Mpro_new_generate_500/2024-01-19-21-58-56/
     RDKit          3D

 33 36  0  0  0  0  0  0  0  0999 V2000
   -9.1300   -2.9100    0.4520 O   0  0  0  0  0  0  0  0  0  0  0  0
  -10.2490   -2.6420    0.1800 C   0  0  0  0  0  0  0  0  0  0  0  0
  -11.3800   -3.0650    1.0860 C   0  0  0  0  0  0  0  0  0  0  0  0
  -11.2000   -3.8390    2.3880 C   0  0  0  0  0  0  0  0  0  0  0  0
  -10.9900   -5.0690    2.3420 N   0  0  0  0  0  0  0  0  0  0  0  0
  -12.7310   -2.7290    0.7330 N   0  0  0  0  0  0  0  0  0  0  0  0
  -12.9960   -1.9940   -0.4510 N   0  0  0  0  0  0  0  0  0  0  0  0
  -14.3580   -1.6940   -0.7530 C   0  0  0  0  0  0  0  0  0  0  0  0
  -15.0390   -0.7180   -0.0560 C   0  0  0  0  0  0  0  0  0  0  0  0
  -16.3510   -0.4690   -0.3980 C   0  0  0  0  0  0  0  0  0  0  0  0
  -16.9430   -1.2030   -1.4080 C   0  0  0  0  0  0  0  0  0  0  0  0
  -18.3840   -0.9560   -1.8060 C   0  0  0  0  0  0  0  0  0  0  0  0
  -16.2510   -2.1690   -2.1000 C   0  0  0  0  0  0  0  0  0  0  0  0
  -14.9490   -2.4160   -1.7590 C   0  0  0  0  0  0  0  0  0  0  0  0
  -11.9050   -1.5730   -1.3540 C   0  0  0  0  0  0  0  0  0  0  0  0
  -10.5280   -1.9050   -1.0240 N   0  0  0  0  0  0  0  0  0  0  0  0
   -9.4550   -1.4720   -1.9190 C   0  0  0  0  0  0  0  0  0  0  0  0
   -9.2820   -2.3940   -3.1270 C   0  0  0  0  0  0  0  0  0  0  0  0
   -7.8170   -2.5500   -3.5360 C   0  0  0  0  0  0  0  0  0  0  0  0
   -6.9720   -3.3210   -2.7550 C   0  0  0  0  0  0  0  0  0  0  0  0
   -5.6390   -3.4770   -3.1110 C   0  0  0  0  0  0  0  0  0  0  0  0
   -5.1940   -2.8390   -4.2640 C   0  0  0  0  0  0  0  0  0  0  0  0
   -6.0850   -2.0780   -5.0070 C   0  0  0  0  0  0  0  0  0  0  0  0
   -7.3470   -1.9600   -4.6270 N   0  0  0  0  0  0  0  0  0  0  0  0
  -12.1450   -0.9640   -2.3390 O   0  0  0  0  0  0  0  0  0  0  0  0
  -18.7610   -1.8760   -2.7390 F   0  0  0  0  0  0  0  0  0  0  0  0
  -18.4550    0.3250   -2.2750 F   0  0  0  0  0  0  0  0  0  0  0  0
  -19.1950   -1.1300   -0.7370 F   0  0  0  0  0  0  0  0  0  0  0  0
  -10.0453   -2.0069   -4.3181 C   0  0  0  0  0  0  0  0  0  0  0  0
   -9.8476   -3.8948   -2.8015 C   0  0  0  0  0  0  0  0  0  0  0  0
   -9.1680   -4.8526   -2.1325 C   0  0  0  0  0  0  0  0  0  0  0  0
  -11.1809   -4.2918   -3.1683 C   0  0  0  0  0  0  0  0  0  0  0  0
   -9.8814   -4.6111   -3.5726 C   0  0  0  0  0  0  0  0  0  0  0  0
  1  2  2  0
  2  3  1  0
  2 16  1  0
  3  4  1  0
  3  6  2  0
  4  5  1  0
  6  7  1  0
  7 15  1  0
  7  8  1  0
 11 12  1  0
 12 28  1  0
 12 27  1  0
 12 26  1  0
 15 16  1  0
 15 25  2  0
 16 17  1  0
 17 18  1  0
 18 19  1  0
 18 29  1  0
 18 30  1  0
 30 31  1  0
 30 32  1  0
 31 33  1  0
 32 33  1  0
  8  9  2  0
  9 10  1  0
 10 11  2  0
 11 13  1  0
 13 14  2  0
 14  8  1  0
 19 20  2  0
 20 21  1  0
 21 22  2  0
 22 23  1  0
 23 24  2  0
 24 19  1  0
M  END

$$$$
No_252-gen_results_new/Mpro_new_generate_500/2024-01-19-21-58-56/
     RDKit          3D

 32 34  0  0  0  0  0  0  0  0999 V2000
   -9.1300   -2.9100    0.4520 O   0  0  0  0  0  0  0  0  0  0  0  0
  -10.2490   -2.6420    0.1800 C   0  0  0  0  0  0  0  0  0  0  0  0
  -11.3800   -3.0650    1.0860 C   0  0  0  0  0  0  0  0  0  0  0  0
  -11.2000   -3.8390    2.3880 C   0  0  0  0  0  0  0  0  0  0  0  0
  -10.9900   -5.0690    2.3420 N   0  0  0  0  0  0  0  0  0  0  0  0
  -12.7310   -2.7290    0.7330 N   0  0  0  0  0  0  0  0  0  0  0  0
  -12.9960   -1.9940   -0.4510 N   0  0  0  0  0  0  0  0  0  0  0  0
  -14.3580   -1.6940   -0.7530 C   0  0  0  0  0  0  0  0  0  0  0  0
  -15.0390   -0.7180   -0.0560 C   0  0  0  0  0  0  0  0  0  0  0  0
  -16.3510   -0.4690   -0.3980 C   0  0  0  0  0  0  0  0  0  0  0  0
  -16.9430   -1.2030   -1.4080 C   0  0  0  0  0  0  0  0  0  0  0  0
  -18.3840   -0.9560   -1.8060 C   0  0  0  0  0  0  0  0  0  0  0  0
  -16.2510   -2.1690   -2.1000 C   0  0  0  0  0  0  0  0  0  0  0  0
  -14.9490   -2.4160   -1.7590 C   0  0  0  0  0  0  0  0  0  0  0  0
  -11.9050   -1.5730   -1.3540 C   0  0  0  0  0  0  0  0  0  0  0  0
  -10.5280   -1.9050   -1.0240 N   0  0  0  0  0  0  0  0  0  0  0  0
   -9.4550   -1.4720   -1.9190 C   0  0  0  0  0  0  0  0  0  0  0  0
   -9.2820   -2.3940   -3.1270 C   0  0  0  0  0  0  0  0  0  0  0  0
   -7.8170   -2.5500   -3.5360 C   0  0  0  0  0  0  0  0  0  0  0  0
   -6.9720   -3.3210   -2.7550 C   0  0  0  0  0  0  0  0  0  0  0  0
   -5.6390   -3.4770   -3.1110 C   0  0  0  0  0  0  0  0  0  0  0  0
   -5.1940   -2.8390   -4.2640 C   0  0  0  0  0  0  0  0  0  0  0  0
   -6.0850   -2.0780   -5.0070 C   0  0  0  0  0  0  0  0  0  0  0  0
   -7.3470   -1.9600   -4.6270 N   0  0  0  0  0  0  0  0  0  0  0  0
  -12.1450   -0.9640   -2.3390 O   0  0  0  0  0  0  0  0  0  0  0  0
  -18.7610   -1.8760   -2.7390 F   0  0  0  0  0  0  0  0  0  0  0  0
  -18.4550    0.3250   -2.2750 F   0  0  0  0  0  0  0  0  0  0  0  0
  -19.1950   -1.1300   -0.7370 F   0  0  0  0  0  0  0  0  0  0  0  0
  -10.1467   -3.0903   -3.8357 C   0  0  0  0  0  0  0  0  0  0  0  0
  -10.1681   -2.5855   -3.6007 C   0  0  0  0  0  0  0  0  0  0  0  0
  -11.2324   -2.1698   -4.6133 C   0  0  0  0  0  0  0  0  0  0  0  0
  -10.2319   -3.9370   -3.9431 C   0  0  0  0  0  0  0  0  0  0  0  0
  1  2  2  0
  2  3  1  0
  2 16  1  0
  3  4  1  0
  3  6  2  0
  4  5  1  0
  6  7  1  0
  7 15  1  0
  7  8  1  0
 11 12  1  0
 12 28  1  0
 12 27  1  0
 12 26  1  0
 15 16  1  0
 15 25  2  0
 16 17  1  0
 17 18  1  0
 18 19  1  0
 18 29  1  0
 29 30  1  0
 30 31  1  0
 30 32  1  0
  8  9  2  0
  9 10  1  0
 10 11  2  0
 11 13  1  0
 13 14  2  0
 14  8  1  0
 19 20  2  0
 20 21  1  0
 21 22  2  0
 22 23  1  0
 23 24  2  0
 24 19  1  0
M  END

$$$$
No_253-gen_results_new/Mpro_new_generate_500/2024-01-19-21-58-56/
     RDKit          3D

 35 37  0  0  0  0  0  0  0  0999 V2000
   -9.1300   -2.9100    0.4520 O   0  0  0  0  0  0  0  0  0  0  0  0
  -10.2490   -2.6420    0.1800 C   0  0  0  0  0  0  0  0  0  0  0  0
  -11.3800   -3.0650    1.0860 C   0  0  0  0  0  0  0  0  0  0  0  0
  -11.2000   -3.8390    2.3880 C   0  0  0  0  0  0  0  0  0  0  0  0
  -10.9900   -5.0690    2.3420 N   0  0  0  0  0  0  0  0  0  0  0  0
  -12.7310   -2.7290    0.7330 N   0  0  0  0  0  0  0  0  0  0  0  0
  -12.9960   -1.9940   -0.4510 N   0  0  0  0  0  0  0  0  0  0  0  0
  -14.3580   -1.6940   -0.7530 C   0  0  0  0  0  0  0  0  0  0  0  0
  -15.0390   -0.7180   -0.0560 C   0  0  0  0  0  0  0  0  0  0  0  0
  -16.3510   -0.4690   -0.3980 C   0  0  0  0  0  0  0  0  0  0  0  0
  -16.9430   -1.2030   -1.4080 C   0  0  0  0  0  0  0  0  0  0  0  0
  -18.3840   -0.9560   -1.8060 C   0  0  0  0  0  0  0  0  0  0  0  0
  -16.2510   -2.1690   -2.1000 C   0  0  0  0  0  0  0  0  0  0  0  0
  -14.9490   -2.4160   -1.7590 C   0  0  0  0  0  0  0  0  0  0  0  0
  -11.9050   -1.5730   -1.3540 C   0  0  0  0  0  0  0  0  0  0  0  0
  -10.5280   -1.9050   -1.0240 N   0  0  0  0  0  0  0  0  0  0  0  0
   -9.4550   -1.4720   -1.9190 C   0  0  0  0  0  0  0  0  0  0  0  0
   -9.2820   -2.3940   -3.1270 C   0  0  0  0  0  0  0  0  0  0  0  0
   -7.8170   -2.5500   -3.5360 C   0  0  0  0  0  0  0  0  0  0  0  0
   -6.9720   -3.3210   -2.7550 C   0  0  0  0  0  0  0  0  0  0  0  0
   -5.6390   -3.4770   -3.1110 C   0  0  0  0  0  0  0  0  0  0  0  0
   -5.1940   -2.8390   -4.2640 C   0  0  0  0  0  0  0  0  0  0  0  0
   -6.0850   -2.0780   -5.0070 C   0  0  0  0  0  0  0  0  0  0  0  0
   -7.3470   -1.9600   -4.6270 N   0  0  0  0  0  0  0  0  0  0  0  0
  -12.1450   -0.9640   -2.3390 O   0  0  0  0  0  0  0  0  0  0  0  0
  -18.7610   -1.8760   -2.7390 F   0  0  0  0  0  0  0  0  0  0  0  0
  -18.4550    0.3250   -2.2750 F   0  0  0  0  0  0  0  0  0  0  0  0
  -19.1950   -1.1300   -0.7370 F   0  0  0  0  0  0  0  0  0  0  0  0
  -10.0453   -2.0069   -4.3181 C   0  0  0  0  0  0  0  0  0  0  0  0
   -9.8476   -3.8948   -2.8015 C   0  0  0  0  0  0  0  0  0  0  0  0
  -10.1714   -4.7331   -3.9309 C   0  0  0  0  0  0  0  0  0  0  0  0
  -10.1706   -6.0308   -3.5979 O   0  0  0  0  0  0  0  0  0  0  0  0
   -9.4459   -6.4041   -2.5012 C   0  0  0  0  0  0  0  0  0  0  0  0
   -9.4844   -6.0477   -1.5062 C   0  0  0  0  0  0  0  0  0  0  0  0
   -9.7601   -5.4071   -0.7868 C   0  0  0  0  0  0  0  0  0  0  0  0
  1  2  2  0
  2  3  1  0
  2 16  1  0
  3  4  1  0
  3  6  2  0
  4  5  1  0
  6  7  1  0
  7 15  1  0
  7  8  1  0
 11 12  1  0
 12 28  1  0
 12 27  1  0
 12 26  1  0
 15 16  1  0
 15 25  2  0
 16 17  1  0
 17 18  1  0
 18 19  1  0
 18 29  1  0
 18 30  1  0
 30 31  2  3
 31 32  1  0
 32 33  1  0
 33 34  2  3
 34 35  1  0
  8  9  2  0
  9 10  1  0
 10 11  2  0
 11 13  1  0
 13 14  2  0
 14  8  1  0
 19 20  2  0
 20 21  1  0
 21 22  2  0
 22 23  1  0
 23 24  2  0
 24 19  1  0
M  END

$$$$
No_254-gen_results_new/Mpro_new_generate_500/2024-01-19-21-58-56/
     RDKit          3D

 35 38  0  0  0  0  0  0  0  0999 V2000
   -9.1300   -2.9100    0.4520 O   0  0  0  0  0  0  0  0  0  0  0  0
  -10.2490   -2.6420    0.1800 C   0  0  0  0  0  0  0  0  0  0  0  0
  -11.3800   -3.0650    1.0860 C   0  0  0  0  0  0  0  0  0  0  0  0
  -11.2000   -3.8390    2.3880 C   0  0  0  0  0  0  0  0  0  0  0  0
  -10.9900   -5.0690    2.3420 N   0  0  0  0  0  0  0  0  0  0  0  0
  -12.7310   -2.7290    0.7330 N   0  0  0  0  0  0  0  0  0  0  0  0
  -12.9960   -1.9940   -0.4510 N   0  0  0  0  0  0  0  0  0  0  0  0
  -14.3580   -1.6940   -0.7530 C   0  0  0  0  0  0  0  0  0  0  0  0
  -15.0390   -0.7180   -0.0560 C   0  0  0  0  0  0  0  0  0  0  0  0
  -16.3510   -0.4690   -0.3980 C   0  0  0  0  0  0  0  0  0  0  0  0
  -16.9430   -1.2030   -1.4080 C   0  0  0  0  0  0  0  0  0  0  0  0
  -18.3840   -0.9560   -1.8060 C   0  0  0  0  0  0  0  0  0  0  0  0
  -16.2510   -2.1690   -2.1000 C   0  0  0  0  0  0  0  0  0  0  0  0
  -14.9490   -2.4160   -1.7590 C   0  0  0  0  0  0  0  0  0  0  0  0
  -11.9050   -1.5730   -1.3540 C   0  0  0  0  0  0  0  0  0  0  0  0
  -10.5280   -1.9050   -1.0240 N   0  0  0  0  0  0  0  0  0  0  0  0
   -9.4550   -1.4720   -1.9190 C   0  0  0  0  0  0  0  0  0  0  0  0
   -9.2820   -2.3940   -3.1270 C   0  0  0  0  0  0  0  0  0  0  0  0
   -7.8170   -2.5500   -3.5360 C   0  0  0  0  0  0  0  0  0  0  0  0
   -6.9720   -3.3210   -2.7550 C   0  0  0  0  0  0  0  0  0  0  0  0
   -5.6390   -3.4770   -3.1110 C   0  0  0  0  0  0  0  0  0  0  0  0
   -5.1940   -2.8390   -4.2640 C   0  0  0  0  0  0  0  0  0  0  0  0
   -6.0850   -2.0780   -5.0070 C   0  0  0  0  0  0  0  0  0  0  0  0
   -7.3470   -1.9600   -4.6270 N   0  0  0  0  0  0  0  0  0  0  0  0
  -12.1450   -0.9640   -2.3390 O   0  0  0  0  0  0  0  0  0  0  0  0
  -18.7610   -1.8760   -2.7390 F   0  0  0  0  0  0  0  0  0  0  0  0
  -18.4550    0.3250   -2.2750 F   0  0  0  0  0  0  0  0  0  0  0  0
  -19.1950   -1.1300   -0.7370 F   0  0  0  0  0  0  0  0  0  0  0  0
  -10.0453   -2.0069   -4.3181 C   0  0  0  0  0  0  0  0  0  0  0  0
   -9.8476   -3.8948   -2.8015 C   0  0  0  0  0  0  0  0  0  0  0  0
  -10.9871   -4.2370   -3.4678 C   0  0  0  0  0  0  0  0  0  0  0  0
  -11.1005   -3.0106   -4.3397 O   0  0  0  0  0  0  0  0  0  0  0  0
  -12.0217   -4.9670   -3.5673 O   0  0  0  0  0  0  0  0  0  0  0  0
  -11.0350   -1.5627   -5.2875 C   0  0  0  0  0  0  0  0  0  0  0  0
  -10.8783   -1.8357   -6.4687 C   0  0  0  0  0  0  0  0  0  0  0  0
  1  2  2  0
  2  3  1  0
  2 16  1  0
  3  4  1  0
  3  6  2  0
  4  5  1  0
  6  7  1  0
  7 15  1  0
  7  8  1  0
 11 12  1  0
 12 28  1  0
 12 27  1  0
 12 26  1  0
 15 16  1  0
 15 25  2  0
 16 17  1  0
 17 18  1  0
 18 19  1  0
 18 29  1  0
 18 30  1  0
 30 31  1  0
 29 32  1  0
 31 32  1  0
 31 33  2  0
 29 34  1  0
 34 35  1  0
  8  9  2  0
  9 10  1  0
 10 11  2  0
 11 13  1  0
 13 14  2  0
 14  8  1  0
 19 20  2  0
 20 21  1  0
 21 22  2  0
 22 23  1  0
 23 24  2  0
 24 19  1  0
M  END

$$$$
No_255-gen_results_new/Mpro_new_generate_500/2024-01-19-21-58-56/
     RDKit          3D

 35 37  0  0  0  0  0  0  0  0999 V2000
   -9.1300   -2.9100    0.4520 O   0  0  0  0  0  0  0  0  0  0  0  0
  -10.2490   -2.6420    0.1800 C   0  0  0  0  0  0  0  0  0  0  0  0
  -11.3800   -3.0650    1.0860 C   0  0  0  0  0  0  0  0  0  0  0  0
  -11.2000   -3.8390    2.3880 C   0  0  0  0  0  0  0  0  0  0  0  0
  -10.9900   -5.0690    2.3420 N   0  0  0  0  0  0  0  0  0  0  0  0
  -12.7310   -2.7290    0.7330 N   0  0  0  0  0  0  0  0  0  0  0  0
  -12.9960   -1.9940   -0.4510 N   0  0  0  0  0  0  0  0  0  0  0  0
  -14.3580   -1.6940   -0.7530 C   0  0  0  0  0  0  0  0  0  0  0  0
  -15.0390   -0.7180   -0.0560 C   0  0  0  0  0  0  0  0  0  0  0  0
  -16.3510   -0.4690   -0.3980 C   0  0  0  0  0  0  0  0  0  0  0  0
  -16.9430   -1.2030   -1.4080 C   0  0  0  0  0  0  0  0  0  0  0  0
  -18.3840   -0.9560   -1.8060 C   0  0  0  0  0  0  0  0  0  0  0  0
  -16.2510   -2.1690   -2.1000 C   0  0  0  0  0  0  0  0  0  0  0  0
  -14.9490   -2.4160   -1.7590 C   0  0  0  0  0  0  0  0  0  0  0  0
  -11.9050   -1.5730   -1.3540 C   0  0  0  0  0  0  0  0  0  0  0  0
  -10.5280   -1.9050   -1.0240 N   0  0  0  0  0  0  0  0  0  0  0  0
   -9.4550   -1.4720   -1.9190 C   0  0  0  0  0  0  0  0  0  0  0  0
   -9.2820   -2.3940   -3.1270 C   0  0  0  0  0  0  0  0  0  0  0  0
   -7.8170   -2.5500   -3.5360 C   0  0  0  0  0  0  0  0  0  0  0  0
   -6.9720   -3.3210   -2.7550 C   0  0  0  0  0  0  0  0  0  0  0  0
   -5.6390   -3.4770   -3.1110 C   0  0  0  0  0  0  0  0  0  0  0  0
   -5.1940   -2.8390   -4.2640 C   0  0  0  0  0  0  0  0  0  0  0  0
   -6.0850   -2.0780   -5.0070 C   0  0  0  0  0  0  0  0  0  0  0  0
   -7.3470   -1.9600   -4.6270 N   0  0  0  0  0  0  0  0  0  0  0  0
  -12.1450   -0.9640   -2.3390 O   0  0  0  0  0  0  0  0  0  0  0  0
  -18.7610   -1.8760   -2.7390 F   0  0  0  0  0  0  0  0  0  0  0  0
  -18.4550    0.3250   -2.2750 F   0  0  0  0  0  0  0  0  0  0  0  0
  -19.1950   -1.1300   -0.7370 F   0  0  0  0  0  0  0  0  0  0  0  0
   -9.7920   -3.7475   -2.8656 C   0  0  0  0  0  0  0  0  0  0  0  0
  -10.0717   -1.8029   -4.3549 C   0  0  0  0  0  0  0  0  0  0  0  0
  -10.0419   -4.6597   -4.1091 C   0  0  0  0  0  0  0  0  0  0  0  0
   -9.3386   -5.3251   -4.5570 O   0  0  0  0  0  0  0  0  0  0  0  0
  -11.5412   -4.8267   -4.4118 C   0  0  0  0  0  0  0  0  0  0  0  0
  -12.0187   -4.2540   -5.1924 F   0  0  0  0  0  0  0  0  0  0  0  0
  -11.6125   -6.1266   -4.5433 F   0  0  0  0  0  0  0  0  0  0  0  0
  1  2  2  0
  2  3  1  0
  2 16  1  0
  3  4  1  0
  3  6  2  0
  4  5  1  0
  6  7  1  0
  7 15  1  0
  7  8  1  0
 11 12  1  0
 12 28  1  0
 12 27  1  0
 12 26  1  0
 15 16  1  0
 15 25  2  0
 16 17  1  0
 17 18  1  0
 18 19  1  0
 18 29  1  0
 18 30  1  0
 29 31  1  0
 31 32  2  0
 31 33  1  0
 33 34  1  0
 33 35  1  0
  8  9  2  0
  9 10  1  0
 10 11  2  0
 11 13  1  0
 13 14  2  0
 14  8  1  0
 19 20  2  0
 20 21  1  0
 21 22  2  0
 22 23  1  0
 23 24  2  0
 24 19  1  0
M  END

$$$$
No_256-gen_results_new/Mpro_new_generate_500/2024-01-19-21-58-56/
     RDKit          3D

 34 36  0  0  0  0  0  0  0  0999 V2000
   -9.1300   -2.9100    0.4520 O   0  0  0  0  0  0  0  0  0  0  0  0
  -10.2490   -2.6420    0.1800 C   0  0  0  0  0  0  0  0  0  0  0  0
  -11.3800   -3.0650    1.0860 C   0  0  0  0  0  0  0  0  0  0  0  0
  -11.2000   -3.8390    2.3880 C   0  0  0  0  0  0  0  0  0  0  0  0
  -10.9900   -5.0690    2.3420 N   0  0  0  0  0  0  0  0  0  0  0  0
  -12.7310   -2.7290    0.7330 N   0  0  0  0  0  0  0  0  0  0  0  0
  -12.9960   -1.9940   -0.4510 N   0  0  0  0  0  0  0  0  0  0  0  0
  -14.3580   -1.6940   -0.7530 C   0  0  0  0  0  0  0  0  0  0  0  0
  -15.0390   -0.7180   -0.0560 C   0  0  0  0  0  0  0  0  0  0  0  0
  -16.3510   -0.4690   -0.3980 C   0  0  0  0  0  0  0  0  0  0  0  0
  -16.9430   -1.2030   -1.4080 C   0  0  0  0  0  0  0  0  0  0  0  0
  -18.3840   -0.9560   -1.8060 C   0  0  0  0  0  0  0  0  0  0  0  0
  -16.2510   -2.1690   -2.1000 C   0  0  0  0  0  0  0  0  0  0  0  0
  -14.9490   -2.4160   -1.7590 C   0  0  0  0  0  0  0  0  0  0  0  0
  -11.9050   -1.5730   -1.3540 C   0  0  0  0  0  0  0  0  0  0  0  0
  -10.5280   -1.9050   -1.0240 N   0  0  0  0  0  0  0  0  0  0  0  0
   -9.4550   -1.4720   -1.9190 C   0  0  0  0  0  0  0  0  0  0  0  0
   -9.2820   -2.3940   -3.1270 C   0  0  0  0  0  0  0  0  0  0  0  0
   -7.8170   -2.5500   -3.5360 C   0  0  0  0  0  0  0  0  0  0  0  0
   -6.9720   -3.3210   -2.7550 C   0  0  0  0  0  0  0  0  0  0  0  0
   -5.6390   -3.4770   -3.1110 C   0  0  0  0  0  0  0  0  0  0  0  0
   -5.1940   -2.8390   -4.2640 C   0  0  0  0  0  0  0  0  0  0  0  0
   -6.0850   -2.0780   -5.0070 C   0  0  0  0  0  0  0  0  0  0  0  0
   -7.3470   -1.9600   -4.6270 N   0  0  0  0  0  0  0  0  0  0  0  0
  -12.1450   -0.9640   -2.3390 O   0  0  0  0  0  0  0  0  0  0  0  0
  -18.7610   -1.8760   -2.7390 F   0  0  0  0  0  0  0  0  0  0  0  0
  -18.4550    0.3250   -2.2750 F   0  0  0  0  0  0  0  0  0  0  0  0
  -19.1950   -1.1300   -0.7370 F   0  0  0  0  0  0  0  0  0  0  0  0
  -10.0453   -2.0069   -4.3181 C   0  0  0  0  0  0  0  0  0  0  0  0
   -9.8476   -3.8948   -2.8015 C   0  0  0  0  0  0  0  0  0  0  0  0
  -10.1714   -4.7331   -3.9309 C   0  0  0  0  0  0  0  0  0  0  0  0
  -10.2051   -6.2008   -3.5771 C   0  0  0  0  0  0  0  0  0  0  0  0
   -9.5312   -6.6796   -2.0331 S   0  0  0  0  0  0  0  0  0  0  0  0
   -9.0887   -5.2294   -1.5086 C   0  0  0  0  0  0  0  0  0  0  0  0
  1  2  2  0
  2  3  1  0
  2 16  1  0
  3  4  1  0
  3  6  2  0
  4  5  1  0
  6  7  1  0
  7 15  1  0
  7  8  1  0
 11 12  1  0
 12 28  1  0
 12 27  1  0
 12 26  1  0
 15 16  1  0
 15 25  2  0
 16 17  1  0
 17 18  1  0
 18 19  1  0
 18 29  1  0
 18 30  1  0
 30 31  2  3
 31 32  1  0
 32 33  1  0
 33 34  1  0
  8  9  2  0
  9 10  1  0
 10 11  2  0
 11 13  1  0
 13 14  2  0
 14  8  1  0
 19 20  2  0
 20 21  1  0
 21 22  2  0
 22 23  1  0
 23 24  2  0
 24 19  1  0
M  END

$$$$
No_257-gen_results_new/Mpro_new_generate_500/2024-01-19-21-58-56/
     RDKit          3D

 32 34  0  0  0  0  0  0  0  0999 V2000
   -9.1300   -2.9100    0.4520 O   0  0  0  0  0  0  0  0  0  0  0  0
  -10.2490   -2.6420    0.1800 C   0  0  0  0  0  0  0  0  0  0  0  0
  -11.3800   -3.0650    1.0860 C   0  0  0  0  0  0  0  0  0  0  0  0
  -11.2000   -3.8390    2.3880 C   0  0  0  0  0  0  0  0  0  0  0  0
  -10.9900   -5.0690    2.3420 N   0  0  0  0  0  0  0  0  0  0  0  0
  -12.7310   -2.7290    0.7330 N   0  0  0  0  0  0  0  0  0  0  0  0
  -12.9960   -1.9940   -0.4510 N   0  0  0  0  0  0  0  0  0  0  0  0
  -14.3580   -1.6940   -0.7530 C   0  0  0  0  0  0  0  0  0  0  0  0
  -15.0390   -0.7180   -0.0560 C   0  0  0  0  0  0  0  0  0  0  0  0
  -16.3510   -0.4690   -0.3980 C   0  0  0  0  0  0  0  0  0  0  0  0
  -16.9430   -1.2030   -1.4080 C   0  0  0  0  0  0  0  0  0  0  0  0
  -18.3840   -0.9560   -1.8060 C   0  0  0  0  0  0  0  0  0  0  0  0
  -16.2510   -2.1690   -2.1000 C   0  0  0  0  0  0  0  0  0  0  0  0
  -14.9490   -2.4160   -1.7590 C   0  0  0  0  0  0  0  0  0  0  0  0
  -11.9050   -1.5730   -1.3540 C   0  0  0  0  0  0  0  0  0  0  0  0
  -10.5280   -1.9050   -1.0240 N   0  0  0  0  0  0  0  0  0  0  0  0
   -9.4550   -1.4720   -1.9190 C   0  0  0  0  0  0  0  0  0  0  0  0
   -9.2820   -2.3940   -3.1270 C   0  0  0  0  0  0  0  0  0  0  0  0
   -7.8170   -2.5500   -3.5360 C   0  0  0  0  0  0  0  0  0  0  0  0
   -6.9720   -3.3210   -2.7550 C   0  0  0  0  0  0  0  0  0  0  0  0
   -5.6390   -3.4770   -3.1110 C   0  0  0  0  0  0  0  0  0  0  0  0
   -5.1940   -2.8390   -4.2640 C   0  0  0  0  0  0  0  0  0  0  0  0
   -6.0850   -2.0780   -5.0070 C   0  0  0  0  0  0  0  0  0  0  0  0
   -7.3470   -1.9600   -4.6270 N   0  0  0  0  0  0  0  0  0  0  0  0
  -12.1450   -0.9640   -2.3390 O   0  0  0  0  0  0  0  0  0  0  0  0
  -18.7610   -1.8760   -2.7390 F   0  0  0  0  0  0  0  0  0  0  0  0
  -18.4550    0.3250   -2.2750 F   0  0  0  0  0  0  0  0  0  0  0  0
  -19.1950   -1.1300   -0.7370 F   0  0  0  0  0  0  0  0  0  0  0  0
   -9.9592   -1.9070   -4.1913 F   0  0  0  0  0  0  0  0  0  0  0  0
   -9.8855   -3.8565   -2.8874 C   0  0  0  0  0  0  0  0  0  0  0  0
   -9.8016   -4.8142   -4.0586 C   0  0  0  0  0  0  0  0  0  0  0  0
  -10.5580   -5.8215   -3.8170 F   0  0  0  0  0  0  0  0  0  0  0  0
  1  2  2  0
  2  3  1  0
  2 16  1  0
  3  4  1  0
  3  6  2  0
  4  5  1  0
  6  7  1  0
  7 15  1  0
  7  8  1  0
 11 12  1  0
 12 28  1  0
 12 27  1  0
 12 26  1  0
 15 16  1  0
 15 25  2  0
 16 17  1  0
 17 18  1  0
 18 19  1  0
 18 29  1  0
 18 30  1  0
 30 31  2  3
 31 32  1  0
  8  9  2  0
  9 10  1  0
 10 11  2  0
 11 13  1  0
 13 14  2  0
 14  8  1  0
 19 20  2  0
 20 21  1  0
 21 22  2  0
 22 23  1  0
 23 24  2  0
 24 19  1  0
M  END

$$$$
No_258-gen_results_new/Mpro_new_generate_500/2024-01-19-21-58-56/
     RDKit          3D

 35 38  0  0  0  0  0  0  0  0999 V2000
   -9.1300   -2.9100    0.4520 O   0  0  0  0  0  0  0  0  0  0  0  0
  -10.2490   -2.6420    0.1800 C   0  0  0  0  0  0  0  0  0  0  0  0
  -11.3800   -3.0650    1.0860 C   0  0  0  0  0  0  0  0  0  0  0  0
  -11.2000   -3.8390    2.3880 C   0  0  0  0  0  0  0  0  0  0  0  0
  -10.9900   -5.0690    2.3420 N   0  0  0  0  0  0  0  0  0  0  0  0
  -12.7310   -2.7290    0.7330 N   0  0  0  0  0  0  0  0  0  0  0  0
  -12.9960   -1.9940   -0.4510 N   0  0  0  0  0  0  0  0  0  0  0  0
  -14.3580   -1.6940   -0.7530 C   0  0  0  0  0  0  0  0  0  0  0  0
  -15.0390   -0.7180   -0.0560 C   0  0  0  0  0  0  0  0  0  0  0  0
  -16.3510   -0.4690   -0.3980 C   0  0  0  0  0  0  0  0  0  0  0  0
  -16.9430   -1.2030   -1.4080 C   0  0  0  0  0  0  0  0  0  0  0  0
  -18.3840   -0.9560   -1.8060 C   0  0  0  0  0  0  0  0  0  0  0  0
  -16.2510   -2.1690   -2.1000 C   0  0  0  0  0  0  0  0  0  0  0  0
  -14.9490   -2.4160   -1.7590 C   0  0  0  0  0  0  0  0  0  0  0  0
  -11.9050   -1.5730   -1.3540 C   0  0  0  0  0  0  0  0  0  0  0  0
  -10.5280   -1.9050   -1.0240 N   0  0  0  0  0  0  0  0  0  0  0  0
   -9.4550   -1.4720   -1.9190 C   0  0  0  0  0  0  0  0  0  0  0  0
   -9.2820   -2.3940   -3.1270 C   0  0  0  0  0  0  0  0  0  0  0  0
   -7.8170   -2.5500   -3.5360 C   0  0  0  0  0  0  0  0  0  0  0  0
   -6.9720   -3.3210   -2.7550 C   0  0  0  0  0  0  0  0  0  0  0  0
   -5.6390   -3.4770   -3.1110 C   0  0  0  0  0  0  0  0  0  0  0  0
   -5.1940   -2.8390   -4.2640 C   0  0  0  0  0  0  0  0  0  0  0  0
   -6.0850   -2.0780   -5.0070 C   0  0  0  0  0  0  0  0  0  0  0  0
   -7.3470   -1.9600   -4.6270 N   0  0  0  0  0  0  0  0  0  0  0  0
  -12.1450   -0.9640   -2.3390 O   0  0  0  0  0  0  0  0  0  0  0  0
  -18.7610   -1.8760   -2.7390 F   0  0  0  0  0  0  0  0  0  0  0  0
  -18.4550    0.3250   -2.2750 F   0  0  0  0  0  0  0  0  0  0  0  0
  -19.1950   -1.1300   -0.7370 F   0  0  0  0  0  0  0  0  0  0  0  0
   -9.7920   -3.7475   -2.8656 C   0  0  0  0  0  0  0  0  0  0  0  0
  -10.1387   -2.0206   -4.2903 C   0  0  0  0  0  0  0  0  0  0  0  0
  -10.7383   -4.2958   -3.7467 C   0  0  0  0  0  0  0  0  0  0  0  0
  -11.6418   -5.3475   -3.4740 O   0  0  0  0  0  0  0  0  0  0  0  0
  -11.1700   -3.1904   -4.4986 O   0  0  0  0  0  0  0  0  0  0  0  0
  -12.3067   -4.9961   -2.3011 C   0  0  0  0  0  0  0  0  0  0  0  0
  -13.8375   -5.1164   -2.5532 C   0  0  0  0  0  0  0  0  0  0  0  0
  1  2  2  0
  2  3  1  0
  2 16  1  0
  3  4  1  0
  3  6  2  0
  4  5  1  0
  6  7  1  0
  7 15  1  0
  7  8  1  0
 11 12  1  0
 12 28  1  0
 12 27  1  0
 12 26  1  0
 15 16  1  0
 15 25  2  0
 16 17  1  0
 17 18  1  0
 18 19  1  0
 18 29  1  0
 18 30  1  0
 29 31  1  0
 31 32  1  0
 30 33  1  0
 31 33  1  0
 32 34  1  0
 34 35  1  0
  8  9  2  0
  9 10  1  0
 10 11  2  0
 11 13  1  0
 13 14  2  0
 14  8  1  0
 19 20  2  0
 20 21  1  0
 21 22  2  0
 22 23  1  0
 23 24  2  0
 24 19  1  0
M  END

$$$$
No_259-gen_results_new/Mpro_new_generate_500/2024-01-19-21-58-56/
     RDKit          3D

 35 37  0  0  0  0  0  0  0  0999 V2000
   -9.1300   -2.9100    0.4520 O   0  0  0  0  0  0  0  0  0  0  0  0
  -10.2490   -2.6420    0.1800 C   0  0  0  0  0  0  0  0  0  0  0  0
  -11.3800   -3.0650    1.0860 C   0  0  0  0  0  0  0  0  0  0  0  0
  -11.2000   -3.8390    2.3880 C   0  0  0  0  0  0  0  0  0  0  0  0
  -10.9900   -5.0690    2.3420 N   0  0  0  0  0  0  0  0  0  0  0  0
  -12.7310   -2.7290    0.7330 N   0  0  0  0  0  0  0  0  0  0  0  0
  -12.9960   -1.9940   -0.4510 N   0  0  0  0  0  0  0  0  0  0  0  0
  -14.3580   -1.6940   -0.7530 C   0  0  0  0  0  0  0  0  0  0  0  0
  -15.0390   -0.7180   -0.0560 C   0  0  0  0  0  0  0  0  0  0  0  0
  -16.3510   -0.4690   -0.3980 C   0  0  0  0  0  0  0  0  0  0  0  0
  -16.9430   -1.2030   -1.4080 C   0  0  0  0  0  0  0  0  0  0  0  0
  -18.3840   -0.9560   -1.8060 C   0  0  0  0  0  0  0  0  0  0  0  0
  -16.2510   -2.1690   -2.1000 C   0  0  0  0  0  0  0  0  0  0  0  0
  -14.9490   -2.4160   -1.7590 C   0  0  0  0  0  0  0  0  0  0  0  0
  -11.9050   -1.5730   -1.3540 C   0  0  0  0  0  0  0  0  0  0  0  0
  -10.5280   -1.9050   -1.0240 N   0  0  0  0  0  0  0  0  0  0  0  0
   -9.4550   -1.4720   -1.9190 C   0  0  0  0  0  0  0  0  0  0  0  0
   -9.2820   -2.3940   -3.1270 C   0  0  0  0  0  0  0  0  0  0  0  0
   -7.8170   -2.5500   -3.5360 C   0  0  0  0  0  0  0  0  0  0  0  0
   -6.9720   -3.3210   -2.7550 C   0  0  0  0  0  0  0  0  0  0  0  0
   -5.6390   -3.4770   -3.1110 C   0  0  0  0  0  0  0  0  0  0  0  0
   -5.1940   -2.8390   -4.2640 C   0  0  0  0  0  0  0  0  0  0  0  0
   -6.0850   -2.0780   -5.0070 C   0  0  0  0  0  0  0  0  0  0  0  0
   -7.3470   -1.9600   -4.6270 N   0  0  0  0  0  0  0  0  0  0  0  0
  -12.1450   -0.9640   -2.3390 O   0  0  0  0  0  0  0  0  0  0  0  0
  -18.7610   -1.8760   -2.7390 F   0  0  0  0  0  0  0  0  0  0  0  0
  -18.4550    0.3250   -2.2750 F   0  0  0  0  0  0  0  0  0  0  0  0
  -19.1950   -1.1300   -0.7370 F   0  0  0  0  0  0  0  0  0  0  0  0
  -10.0453   -2.0069   -4.3181 C   0  0  0  0  0  0  0  0  0  0  0  0
   -9.8903   -3.8143   -2.9484 C   0  0  0  0  0  0  0  0  0  0  0  0
  -10.2391   -4.6422   -4.0501 C   0  0  0  0  0  0  0  0  0  0  0  0
  -11.0860   -5.8267   -3.9051 C   0  0  0  0  0  0  0  0  0  0  0  0
  -11.7479   -5.8772   -5.2466 C   0  0  0  0  0  0  0  0  0  0  0  0
  -11.1505   -5.5295   -6.3631 C   0  0  0  0  0  0  0  0  0  0  0  0
  -10.2639   -4.5055   -6.4406 N   0  0  0  0  0  0  0  0  0  0  0  0
  1  2  2  0
  2  3  1  0
  2 16  1  0
  3  4  1  0
  3  6  2  0
  4  5  1  0
  6  7  1  0
  7 15  1  0
  7  8  1  0
 11 12  1  0
 12 28  1  0
 12 27  1  0
 12 26  1  0
 15 16  1  0
 15 25  2  0
 16 17  1  0
 17 18  1  0
 18 19  1  0
 18 29  1  0
 18 30  1  0
 30 31  2  3
 31 32  1  0
 32 33  1  0
 33 34  2  3
 34 35  1  0
  8  9  2  0
  9 10  1  0
 10 11  2  0
 11 13  1  0
 13 14  2  0
 14  8  1  0
 19 20  2  0
 20 21  1  0
 21 22  2  0
 22 23  1  0
 23 24  2  0
 24 19  1  0
M  END

$$$$
No_260-gen_results_new/Mpro_new_generate_500/2024-01-19-21-58-56/
     RDKit          3D

 35 38  0  0  0  0  0  0  0  0999 V2000
   -9.1300   -2.9100    0.4520 O   0  0  0  0  0  0  0  0  0  0  0  0
  -10.2490   -2.6420    0.1800 C   0  0  0  0  0  0  0  0  0  0  0  0
  -11.3800   -3.0650    1.0860 C   0  0  0  0  0  0  0  0  0  0  0  0
  -11.2000   -3.8390    2.3880 C   0  0  0  0  0  0  0  0  0  0  0  0
  -10.9900   -5.0690    2.3420 N   0  0  0  0  0  0  0  0  0  0  0  0
  -12.7310   -2.7290    0.7330 N   0  0  0  0  0  0  0  0  0  0  0  0
  -12.9960   -1.9940   -0.4510 N   0  0  0  0  0  0  0  0  0  0  0  0
  -14.3580   -1.6940   -0.7530 C   0  0  0  0  0  0  0  0  0  0  0  0
  -15.0390   -0.7180   -0.0560 C   0  0  0  0  0  0  0  0  0  0  0  0
  -16.3510   -0.4690   -0.3980 C   0  0  0  0  0  0  0  0  0  0  0  0
  -16.9430   -1.2030   -1.4080 C   0  0  0  0  0  0  0  0  0  0  0  0
  -18.3840   -0.9560   -1.8060 C   0  0  0  0  0  0  0  0  0  0  0  0
  -16.2510   -2.1690   -2.1000 C   0  0  0  0  0  0  0  0  0  0  0  0
  -14.9490   -2.4160   -1.7590 C   0  0  0  0  0  0  0  0  0  0  0  0
  -11.9050   -1.5730   -1.3540 C   0  0  0  0  0  0  0  0  0  0  0  0
  -10.5280   -1.9050   -1.0240 N   0  0  0  0  0  0  0  0  0  0  0  0
   -9.4550   -1.4720   -1.9190 C   0  0  0  0  0  0  0  0  0  0  0  0
   -9.2820   -2.3940   -3.1270 C   0  0  0  0  0  0  0  0  0  0  0  0
   -7.8170   -2.5500   -3.5360 C   0  0  0  0  0  0  0  0  0  0  0  0
   -6.9720   -3.3210   -2.7550 C   0  0  0  0  0  0  0  0  0  0  0  0
   -5.6390   -3.4770   -3.1110 C   0  0  0  0  0  0  0  0  0  0  0  0
   -5.1940   -2.8390   -4.2640 C   0  0  0  0  0  0  0  0  0  0  0  0
   -6.0850   -2.0780   -5.0070 C   0  0  0  0  0  0  0  0  0  0  0  0
   -7.3470   -1.9600   -4.6270 N   0  0  0  0  0  0  0  0  0  0  0  0
  -12.1450   -0.9640   -2.3390 O   0  0  0  0  0  0  0  0  0  0  0  0
  -18.7610   -1.8760   -2.7390 F   0  0  0  0  0  0  0  0  0  0  0  0
  -18.4550    0.3250   -2.2750 F   0  0  0  0  0  0  0  0  0  0  0  0
  -19.1950   -1.1300   -0.7370 F   0  0  0  0  0  0  0  0  0  0  0  0
   -9.7920   -3.7475   -2.8656 C   0  0  0  0  0  0  0  0  0  0  0  0
  -10.1387   -2.0206   -4.2903 C   0  0  0  0  0  0  0  0  0  0  0  0
  -10.1257   -4.6809   -3.9732 C   0  0  0  0  0  0  0  0  0  0  0  0
  -10.6121   -3.5280   -4.9891 C   0  0  0  0  0  0  0  0  0  0  0  0
  -11.1360   -3.3790   -6.3190 C   0  0  0  0  0  0  0  0  0  0  0  0
  -11.6857   -2.4031   -6.7937 C   0  0  0  0  0  0  0  0  0  0  0  0
  -10.4867   -0.9080   -5.1068 C   0  0  0  0  0  0  0  0  0  0  0  0
  1  2  2  0
  2  3  1  0
  2 16  1  0
  3  4  1  0
  3  6  2  0
  4  5  1  0
  6  7  1  0
  7 15  1  0
  7  8  1  0
 11 12  1  0
 12 28  1  0
 12 27  1  0
 12 26  1  0
 15 16  1  0
 15 25  2  0
 16 17  1  0
 17 18  1  0
 18 19  1  0
 18 29  1  0
 18 30  1  0
 29 31  2  0
 30 32  1  0
 31 32  1  0
 32 33  1  0
 33 34  1  0
 30 35  1  0
  8  9  2  0
  9 10  1  0
 10 11  2  0
 11 13  1  0
 13 14  2  0
 14  8  1  0
 19 20  2  0
 20 21  1  0
 21 22  2  0
 22 23  1  0
 23 24  2  0
 24 19  1  0
M  END

$$$$
No_261-gen_results_new/Mpro_new_generate_500/2024-01-19-21-58-56/
     RDKit          3D

 35 38  0  0  0  0  0  0  0  0999 V2000
   -9.1300   -2.9100    0.4520 O   0  0  0  0  0  0  0  0  0  0  0  0
  -10.2490   -2.6420    0.1800 C   0  0  0  0  0  0  0  0  0  0  0  0
  -11.3800   -3.0650    1.0860 C   0  0  0  0  0  0  0  0  0  0  0  0
  -11.2000   -3.8390    2.3880 C   0  0  0  0  0  0  0  0  0  0  0  0
  -10.9900   -5.0690    2.3420 N   0  0  0  0  0  0  0  0  0  0  0  0
  -12.7310   -2.7290    0.7330 N   0  0  0  0  0  0  0  0  0  0  0  0
  -12.9960   -1.9940   -0.4510 N   0  0  0  0  0  0  0  0  0  0  0  0
  -14.3580   -1.6940   -0.7530 C   0  0  0  0  0  0  0  0  0  0  0  0
  -15.0390   -0.7180   -0.0560 C   0  0  0  0  0  0  0  0  0  0  0  0
  -16.3510   -0.4690   -0.3980 C   0  0  0  0  0  0  0  0  0  0  0  0
  -16.9430   -1.2030   -1.4080 C   0  0  0  0  0  0  0  0  0  0  0  0
  -18.3840   -0.9560   -1.8060 C   0  0  0  0  0  0  0  0  0  0  0  0
  -16.2510   -2.1690   -2.1000 C   0  0  0  0  0  0  0  0  0  0  0  0
  -14.9490   -2.4160   -1.7590 C   0  0  0  0  0  0  0  0  0  0  0  0
  -11.9050   -1.5730   -1.3540 C   0  0  0  0  0  0  0  0  0  0  0  0
  -10.5280   -1.9050   -1.0240 N   0  0  0  0  0  0  0  0  0  0  0  0
   -9.4550   -1.4720   -1.9190 C   0  0  0  0  0  0  0  0  0  0  0  0
   -9.2820   -2.3940   -3.1270 C   0  0  0  0  0  0  0  0  0  0  0  0
   -7.8170   -2.5500   -3.5360 C   0  0  0  0  0  0  0  0  0  0  0  0
   -6.9720   -3.3210   -2.7550 C   0  0  0  0  0  0  0  0  0  0  0  0
   -5.6390   -3.4770   -3.1110 C   0  0  0  0  0  0  0  0  0  0  0  0
   -5.1940   -2.8390   -4.2640 C   0  0  0  0  0  0  0  0  0  0  0  0
   -6.0850   -2.0780   -5.0070 C   0  0  0  0  0  0  0  0  0  0  0  0
   -7.3470   -1.9600   -4.6270 N   0  0  0  0  0  0  0  0  0  0  0  0
  -12.1450   -0.9640   -2.3390 O   0  0  0  0  0  0  0  0  0  0  0  0
  -18.7610   -1.8760   -2.7390 F   0  0  0  0  0  0  0  0  0  0  0  0
  -18.4550    0.3250   -2.2750 F   0  0  0  0  0  0  0  0  0  0  0  0
  -19.1950   -1.1300   -0.7370 F   0  0  0  0  0  0  0  0  0  0  0  0
   -9.7920   -3.7475   -2.8656 C   0  0  0  0  0  0  0  0  0  0  0  0
  -10.0717   -1.8029   -4.3549 C   0  0  0  0  0  0  0  0  0  0  0  0
  -10.8758   -3.7619   -2.5647 F   0  0  0  0  0  0  0  0  0  0  0  0
   -9.7385   -4.6055   -4.0492 F   0  0  0  0  0  0  0  0  0  0  0  0
   -9.0128   -4.4827   -1.6996 C   0  0  0  0  0  0  0  0  0  0  0  0
   -9.4092   -5.5626   -1.1780 F   0  0  0  0  0  0  0  0  0  0  0  0
   -7.5239   -4.5875   -1.6598 C   0  0  0  0  0  0  0  0  0  0  0  0
  1  2  2  0
  2  3  1  0
  2 16  1  0
  3  4  1  0
  3  6  2  0
  4  5  1  0
  6  7  1  0
  7 15  1  0
  7  8  1  0
 11 12  1  0
 12 28  1  0
 12 27  1  0
 12 26  1  0
 15 16  1  0
 15 25  2  0
 16 17  1  0
 17 18  1  0
 18 19  1  0
 18 29  1  0
 18 30  1  0
 29 31  1  0
 29 32  1  0
 29 33  1  0
 33 34  1  0
 20 35  1  0
 33 35  1  0
  8  9  2  0
  9 10  1  0
 10 11  2  0
 11 13  1  0
 13 14  2  0
 14  8  1  0
 19 24  1  0
 24 23  2  0
 23 22  1  0
 22 21  2  0
 21 20  1  0
 20 19  2  0
M  END

$$$$
No_262-gen_results_new/Mpro_new_generate_500/2024-01-19-21-58-56/
     RDKit          3D

 33 35  0  0  0  0  0  0  0  0999 V2000
   -9.1300   -2.9100    0.4520 O   0  0  0  0  0  0  0  0  0  0  0  0
  -10.2490   -2.6420    0.1800 C   0  0  0  0  0  0  0  0  0  0  0  0
  -11.3800   -3.0650    1.0860 C   0  0  0  0  0  0  0  0  0  0  0  0
  -11.2000   -3.8390    2.3880 C   0  0  0  0  0  0  0  0  0  0  0  0
  -10.9900   -5.0690    2.3420 N   0  0  0  0  0  0  0  0  0  0  0  0
  -12.7310   -2.7290    0.7330 N   0  0  0  0  0  0  0  0  0  0  0  0
  -12.9960   -1.9940   -0.4510 N   0  0  0  0  0  0  0  0  0  0  0  0
  -14.3580   -1.6940   -0.7530 C   0  0  0  0  0  0  0  0  0  0  0  0
  -15.0390   -0.7180   -0.0560 C   0  0  0  0  0  0  0  0  0  0  0  0
  -16.3510   -0.4690   -0.3980 C   0  0  0  0  0  0  0  0  0  0  0  0
  -16.9430   -1.2030   -1.4080 C   0  0  0  0  0  0  0  0  0  0  0  0
  -18.3840   -0.9560   -1.8060 C   0  0  0  0  0  0  0  0  0  0  0  0
  -16.2510   -2.1690   -2.1000 C   0  0  0  0  0  0  0  0  0  0  0  0
  -14.9490   -2.4160   -1.7590 C   0  0  0  0  0  0  0  0  0  0  0  0
  -11.9050   -1.5730   -1.3540 C   0  0  0  0  0  0  0  0  0  0  0  0
  -10.5280   -1.9050   -1.0240 N   0  0  0  0  0  0  0  0  0  0  0  0
   -9.4550   -1.4720   -1.9190 C   0  0  0  0  0  0  0  0  0  0  0  0
   -9.2820   -2.3940   -3.1270 C   0  0  0  0  0  0  0  0  0  0  0  0
   -7.8170   -2.5500   -3.5360 C   0  0  0  0  0  0  0  0  0  0  0  0
   -6.9720   -3.3210   -2.7550 C   0  0  0  0  0  0  0  0  0  0  0  0
   -5.6390   -3.4770   -3.1110 C   0  0  0  0  0  0  0  0  0  0  0  0
   -5.1940   -2.8390   -4.2640 C   0  0  0  0  0  0  0  0  0  0  0  0
   -6.0850   -2.0780   -5.0070 C   0  0  0  0  0  0  0  0  0  0  0  0
   -7.3470   -1.9600   -4.6270 N   0  0  0  0  0  0  0  0  0  0  0  0
  -12.1450   -0.9640   -2.3390 O   0  0  0  0  0  0  0  0  0  0  0  0
  -18.7610   -1.8760   -2.7390 F   0  0  0  0  0  0  0  0  0  0  0  0
  -18.4550    0.3250   -2.2750 F   0  0  0  0  0  0  0  0  0  0  0  0
  -19.1950   -1.1300   -0.7370 F   0  0  0  0  0  0  0  0  0  0  0  0
   -9.6560   -3.6380   -2.7665 F   0  0  0  0  0  0  0  0  0  0  0  0
  -10.0460   -1.9845   -4.1698 F   0  0  0  0  0  0  0  0  0  0  0  0
  -16.8837   -3.3106   -3.3812 S   0  0  0  0  0  0  0  0  0  0  0  0
  -16.6586   -4.9066   -2.5820 C   0  0  0  0  0  0  0  0  0  0  0  0
  -18.4712   -3.2597   -3.4180 O   0  0  0  0  0  0  0  0  0  0  0  0
  1  2  2  0
  2  3  1  0
  2 16  1  0
  3  4  1  0
  3  6  2  0
  4  5  1  0
  6  7  1  0
  7 15  1  0
  7  8  1  0
 11 12  1  0
 12 28  1  0
 12 27  1  0
 12 26  1  0
 15 16  1  0
 15 25  2  0
 16 17  1  0
 17 18  1  0
 18 19  1  0
 18 29  1  0
 18 30  1  0
 13 31  1  0
 31 32  1  0
 31 33  2  0
  8  9  2  0
  9 10  1  0
 10 11  2  0
 11 13  1  0
 13 14  2  0
 14  8  1  0
 19 20  2  0
 20 21  1  0
 21 22  2  0
 22 23  1  0
 23 24  2  0
 24 19  1  0
M  END

$$$$
No_263-gen_results_new/Mpro_new_generate_500/2024-01-19-21-58-56/
     RDKit          3D

 35 38  0  0  0  0  0  0  0  0999 V2000
   -9.1300   -2.9100    0.4520 O   0  0  0  0  0  0  0  0  0  0  0  0
  -10.2490   -2.6420    0.1800 C   0  0  0  0  0  0  0  0  0  0  0  0
  -11.3800   -3.0650    1.0860 C   0  0  0  0  0  0  0  0  0  0  0  0
  -11.2000   -3.8390    2.3880 C   0  0  0  0  0  0  0  0  0  0  0  0
  -10.9900   -5.0690    2.3420 N   0  0  0  0  0  0  0  0  0  0  0  0
  -12.7310   -2.7290    0.7330 N   0  0  0  0  0  0  0  0  0  0  0  0
  -12.9960   -1.9940   -0.4510 N   0  0  0  0  0  0  0  0  0  0  0  0
  -14.3580   -1.6940   -0.7530 C   0  0  0  0  0  0  0  0  0  0  0  0
  -15.0390   -0.7180   -0.0560 C   0  0  0  0  0  0  0  0  0  0  0  0
  -16.3510   -0.4690   -0.3980 C   0  0  0  0  0  0  0  0  0  0  0  0
  -16.9430   -1.2030   -1.4080 C   0  0  0  0  0  0  0  0  0  0  0  0
  -18.3840   -0.9560   -1.8060 C   0  0  0  0  0  0  0  0  0  0  0  0
  -16.2510   -2.1690   -2.1000 C   0  0  0  0  0  0  0  0  0  0  0  0
  -14.9490   -2.4160   -1.7590 C   0  0  0  0  0  0  0  0  0  0  0  0
  -11.9050   -1.5730   -1.3540 C   0  0  0  0  0  0  0  0  0  0  0  0
  -10.5280   -1.9050   -1.0240 N   0  0  0  0  0  0  0  0  0  0  0  0
   -9.4550   -1.4720   -1.9190 C   0  0  0  0  0  0  0  0  0  0  0  0
   -9.2820   -2.3940   -3.1270 C   0  0  0  0  0  0  0  0  0  0  0  0
   -7.8170   -2.5500   -3.5360 C   0  0  0  0  0  0  0  0  0  0  0  0
   -6.9720   -3.3210   -2.7550 C   0  0  0  0  0  0  0  0  0  0  0  0
   -5.6390   -3.4770   -3.1110 C   0  0  0  0  0  0  0  0  0  0  0  0
   -5.1940   -2.8390   -4.2640 C   0  0  0  0  0  0  0  0  0  0  0  0
   -6.0850   -2.0780   -5.0070 C   0  0  0  0  0  0  0  0  0  0  0  0
   -7.3470   -1.9600   -4.6270 N   0  0  0  0  0  0  0  0  0  0  0  0
  -12.1450   -0.9640   -2.3390 O   0  0  0  0  0  0  0  0  0  0  0  0
  -18.7610   -1.8760   -2.7390 F   0  0  0  0  0  0  0  0  0  0  0  0
  -18.4550    0.3250   -2.2750 F   0  0  0  0  0  0  0  0  0  0  0  0
  -19.1950   -1.1300   -0.7370 F   0  0  0  0  0  0  0  0  0  0  0  0
   -9.7920   -3.7475   -2.8656 C   0  0  0  0  0  0  0  0  0  0  0  0
  -10.0717   -1.8029   -4.3549 C   0  0  0  0  0  0  0  0  0  0  0  0
  -10.8758   -3.7619   -2.5647 F   0  0  0  0  0  0  0  0  0  0  0  0
   -9.7385   -4.6055   -4.0492 F   0  0  0  0  0  0  0  0  0  0  0  0
   -9.0128   -4.4827   -1.6996 C   0  0  0  0  0  0  0  0  0  0  0  0
   -7.4765   -4.2149   -1.9682 C   0  0  0  0  0  0  0  0  0  0  0  0
   -6.9619   -4.1384   -0.7681 F   0  0  0  0  0  0  0  0  0  0  0  0
  1  2  2  0
  2  3  1  0
  2 16  1  0
  3  4  1  0
  3  6  2  0
  4  5  1  0
  6  7  1  0
  7 15  1  0
  7  8  1  0
 11 12  1  0
 12 28  1  0
 12 27  1  0
 12 26  1  0
 15 16  1  0
 15 25  2  0
 16 17  1  0
 17 18  1  0
 18 19  1  0
 18 29  1  0
 18 30  1  0
 29 31  1  0
 29 32  1  0
 29 33  1  0
 20 34  1  0
 34 35  1  0
 34 33  1  0
  8  9  2  0
  9 10  1  0
 10 11  2  0
 11 13  1  0
 13 14  2  0
 14  8  1  0
 19 24  1  0
 24 23  2  0
 23 22  1  0
 22 21  2  0
 21 20  1  0
 20 19  2  0
M  END

$$$$
No_264-gen_results_new/Mpro_new_generate_500/2024-01-19-21-58-56/
     RDKit          3D

 33 35  0  0  0  0  0  0  0  0999 V2000
   -9.1300   -2.9100    0.4520 O   0  0  0  0  0  0  0  0  0  0  0  0
  -10.2490   -2.6420    0.1800 C   0  0  0  0  0  0  0  0  0  0  0  0
  -11.3800   -3.0650    1.0860 C   0  0  0  0  0  0  0  0  0  0  0  0
  -11.2000   -3.8390    2.3880 C   0  0  0  0  0  0  0  0  0  0  0  0
  -10.9900   -5.0690    2.3420 N   0  0  0  0  0  0  0  0  0  0  0  0
  -12.7310   -2.7290    0.7330 N   0  0  0  0  0  0  0  0  0  0  0  0
  -12.9960   -1.9940   -0.4510 N   0  0  0  0  0  0  0  0  0  0  0  0
  -14.3580   -1.6940   -0.7530 C   0  0  0  0  0  0  0  0  0  0  0  0
  -15.0390   -0.7180   -0.0560 C   0  0  0  0  0  0  0  0  0  0  0  0
  -16.3510   -0.4690   -0.3980 C   0  0  0  0  0  0  0  0  0  0  0  0
  -16.9430   -1.2030   -1.4080 C   0  0  0  0  0  0  0  0  0  0  0  0
  -18.3840   -0.9560   -1.8060 C   0  0  0  0  0  0  0  0  0  0  0  0
  -16.2510   -2.1690   -2.1000 C   0  0  0  0  0  0  0  0  0  0  0  0
  -14.9490   -2.4160   -1.7590 C   0  0  0  0  0  0  0  0  0  0  0  0
  -11.9050   -1.5730   -1.3540 C   0  0  0  0  0  0  0  0  0  0  0  0
  -10.5280   -1.9050   -1.0240 N   0  0  0  0  0  0  0  0  0  0  0  0
   -9.4550   -1.4720   -1.9190 C   0  0  0  0  0  0  0  0  0  0  0  0
   -9.2820   -2.3940   -3.1270 C   0  0  0  0  0  0  0  0  0  0  0  0
   -7.8170   -2.5500   -3.5360 C   0  0  0  0  0  0  0  0  0  0  0  0
   -6.9720   -3.3210   -2.7550 C   0  0  0  0  0  0  0  0  0  0  0  0
   -5.6390   -3.4770   -3.1110 C   0  0  0  0  0  0  0  0  0  0  0  0
   -5.1940   -2.8390   -4.2640 C   0  0  0  0  0  0  0  0  0  0  0  0
   -6.0850   -2.0780   -5.0070 C   0  0  0  0  0  0  0  0  0  0  0  0
   -7.3470   -1.9600   -4.6270 N   0  0  0  0  0  0  0  0  0  0  0  0
  -12.1450   -0.9640   -2.3390 O   0  0  0  0  0  0  0  0  0  0  0  0
  -18.7610   -1.8760   -2.7390 F   0  0  0  0  0  0  0  0  0  0  0  0
  -18.4550    0.3250   -2.2750 F   0  0  0  0  0  0  0  0  0  0  0  0
  -19.1950   -1.1300   -0.7370 F   0  0  0  0  0  0  0  0  0  0  0  0
   -9.7920   -3.7475   -2.8656 C   0  0  0  0  0  0  0  0  0  0  0  0
  -10.2108   -1.7522   -4.5716 S   0  0  0  0  0  0  0  0  0  0  0  0
  -10.4781   -2.9634   -5.7133 C   0  0  0  0  0  0  0  0  0  0  0  0
  -10.5106   -0.5483   -4.7638 O   0  0  0  0  0  0  0  0  0  0  0  0
  -10.6226   -0.3536   -5.8830 S   0  0  0  0  0  0  0  0  0  0  0  0
  1  2  2  0
  2  3  1  0
  2 16  1  0
  3  4  1  0
  3  6  2  0
  4  5  1  0
  6  7  1  0
  7 15  1  0
  7  8  1  0
 11 12  1  0
 12 28  1  0
 12 27  1  0
 12 26  1  0
 15 16  1  0
 15 25  2  0
 16 17  1  0
 17 18  1  0
 18 19  1  0
 18 29  1  0
 18 30  1  0
 30 31  1  0
 30 32  2  0
 30 33  2  0
  8  9  2  0
  9 10  1  0
 10 11  2  0
 11 13  1  0
 13 14  2  0
 14  8  1  0
 19 20  2  0
 20 21  1  0
 21 22  2  0
 22 23  1  0
 23 24  2  0
 24 19  1  0
M  END

$$$$
No_265-gen_results_new/Mpro_new_generate_500/2024-01-19-21-58-56/
     RDKit          3D

 35 38  0  0  0  0  0  0  0  0999 V2000
   -9.1300   -2.9100    0.4520 O   0  0  0  0  0  0  0  0  0  0  0  0
  -10.2490   -2.6420    0.1800 C   0  0  0  0  0  0  0  0  0  0  0  0
  -11.3800   -3.0650    1.0860 C   0  0  0  0  0  0  0  0  0  0  0  0
  -11.2000   -3.8390    2.3880 C   0  0  0  0  0  0  0  0  0  0  0  0
  -10.9900   -5.0690    2.3420 N   0  0  0  0  0  0  0  0  0  0  0  0
  -12.7310   -2.7290    0.7330 N   0  0  0  0  0  0  0  0  0  0  0  0
  -12.9960   -1.9940   -0.4510 N   0  0  0  0  0  0  0  0  0  0  0  0
  -14.3580   -1.6940   -0.7530 C   0  0  0  0  0  0  0  0  0  0  0  0
  -15.0390   -0.7180   -0.0560 C   0  0  0  0  0  0  0  0  0  0  0  0
  -16.3510   -0.4690   -0.3980 C   0  0  0  0  0  0  0  0  0  0  0  0
  -16.9430   -1.2030   -1.4080 C   0  0  0  0  0  0  0  0  0  0  0  0
  -18.3840   -0.9560   -1.8060 C   0  0  0  0  0  0  0  0  0  0  0  0
  -16.2510   -2.1690   -2.1000 C   0  0  0  0  0  0  0  0  0  0  0  0
  -14.9490   -2.4160   -1.7590 C   0  0  0  0  0  0  0  0  0  0  0  0
  -11.9050   -1.5730   -1.3540 C   0  0  0  0  0  0  0  0  0  0  0  0
  -10.5280   -1.9050   -1.0240 N   0  0  0  0  0  0  0  0  0  0  0  0
   -9.4550   -1.4720   -1.9190 C   0  0  0  0  0  0  0  0  0  0  0  0
   -9.2820   -2.3940   -3.1270 C   0  0  0  0  0  0  0  0  0  0  0  0
   -7.8170   -2.5500   -3.5360 C   0  0  0  0  0  0  0  0  0  0  0  0
   -6.9720   -3.3210   -2.7550 C   0  0  0  0  0  0  0  0  0  0  0  0
   -5.6390   -3.4770   -3.1110 C   0  0  0  0  0  0  0  0  0  0  0  0
   -5.1940   -2.8390   -4.2640 C   0  0  0  0  0  0  0  0  0  0  0  0
   -6.0850   -2.0780   -5.0070 C   0  0  0  0  0  0  0  0  0  0  0  0
   -7.3470   -1.9600   -4.6270 N   0  0  0  0  0  0  0  0  0  0  0  0
  -12.1450   -0.9640   -2.3390 O   0  0  0  0  0  0  0  0  0  0  0  0
  -18.7610   -1.8760   -2.7390 F   0  0  0  0  0  0  0  0  0  0  0  0
  -18.4550    0.3250   -2.2750 F   0  0  0  0  0  0  0  0  0  0  0  0
  -19.1950   -1.1300   -0.7370 F   0  0  0  0  0  0  0  0  0  0  0  0
   -9.7920   -3.7475   -2.8656 C   0  0  0  0  0  0  0  0  0  0  0  0
  -10.0717   -1.8029   -4.3549 C   0  0  0  0  0  0  0  0  0  0  0  0
  -10.8816   -4.2900   -3.6532 C   0  0  0  0  0  0  0  0  0  0  0  0
  -10.4719   -4.5023   -4.6401 C   0  0  0  0  0  0  0  0  0  0  0  0
  -11.5688   -5.5782   -5.0785 C   0  0  0  0  0  0  0  0  0  0  0  0
  -12.7173   -5.7497   -4.5396 C   0  0  0  0  0  0  0  0  0  0  0  0
  -12.4376   -4.9659   -3.2963 O   0  0  0  0  0  0  0  0  0  0  0  0
  1  2  2  0
  2  3  1  0
  2 16  1  0
  3  4  1  0
  3  6  2  0
  4  5  1  0
  6  7  1  0
  7 15  1  0
  7  8  1  0
 11 12  1  0
 12 28  1  0
 12 27  1  0
 12 26  1  0
 15 16  1  0
 15 25  2  0
 16 17  1  0
 17 18  1  0
 18 19  1  0
 18 29  1  0
 18 30  1  0
 29 31  1  0
 31 32  2  0
 32 33  1  0
 33 34  2  0
 31 35  1  0
 34 35  1  0
  8  9  2  0
  9 10  1  0
 10 11  2  0
 11 13  1  0
 13 14  2  0
 14  8  1  0
 19 20  2  0
 20 21  1  0
 21 22  2  0
 22 23  1  0
 23 24  2  0
 24 19  1  0
M  END

$$$$
No_266-gen_results_new/Mpro_new_generate_500/2024-01-19-21-58-56/
     RDKit          3D

 35 38  0  0  0  0  0  0  0  0999 V2000
   -9.1300   -2.9100    0.4520 O   0  0  0  0  0  0  0  0  0  0  0  0
  -10.2490   -2.6420    0.1800 C   0  0  0  0  0  0  0  0  0  0  0  0
  -11.3800   -3.0650    1.0860 C   0  0  0  0  0  0  0  0  0  0  0  0
  -11.2000   -3.8390    2.3880 C   0  0  0  0  0  0  0  0  0  0  0  0
  -10.9900   -5.0690    2.3420 N   0  0  0  0  0  0  0  0  0  0  0  0
  -12.7310   -2.7290    0.7330 N   0  0  0  0  0  0  0  0  0  0  0  0
  -12.9960   -1.9940   -0.4510 N   0  0  0  0  0  0  0  0  0  0  0  0
  -14.3580   -1.6940   -0.7530 C   0  0  0  0  0  0  0  0  0  0  0  0
  -15.0390   -0.7180   -0.0560 C   0  0  0  0  0  0  0  0  0  0  0  0
  -16.3510   -0.4690   -0.3980 C   0  0  0  0  0  0  0  0  0  0  0  0
  -16.9430   -1.2030   -1.4080 C   0  0  0  0  0  0  0  0  0  0  0  0
  -18.3840   -0.9560   -1.8060 C   0  0  0  0  0  0  0  0  0  0  0  0
  -16.2510   -2.1690   -2.1000 C   0  0  0  0  0  0  0  0  0  0  0  0
  -14.9490   -2.4160   -1.7590 C   0  0  0  0  0  0  0  0  0  0  0  0
  -11.9050   -1.5730   -1.3540 C   0  0  0  0  0  0  0  0  0  0  0  0
  -10.5280   -1.9050   -1.0240 N   0  0  0  0  0  0  0  0  0  0  0  0
   -9.4550   -1.4720   -1.9190 C   0  0  0  0  0  0  0  0  0  0  0  0
   -9.2820   -2.3940   -3.1270 C   0  0  0  0  0  0  0  0  0  0  0  0
   -7.8170   -2.5500   -3.5360 C   0  0  0  0  0  0  0  0  0  0  0  0
   -6.9720   -3.3210   -2.7550 C   0  0  0  0  0  0  0  0  0  0  0  0
   -5.6390   -3.4770   -3.1110 C   0  0  0  0  0  0  0  0  0  0  0  0
   -5.1940   -2.8390   -4.2640 C   0  0  0  0  0  0  0  0  0  0  0  0
   -6.0850   -2.0780   -5.0070 C   0  0  0  0  0  0  0  0  0  0  0  0
   -7.3470   -1.9600   -4.6270 N   0  0  0  0  0  0  0  0  0  0  0  0
  -12.1450   -0.9640   -2.3390 O   0  0  0  0  0  0  0  0  0  0  0  0
  -18.7610   -1.8760   -2.7390 F   0  0  0  0  0  0  0  0  0  0  0  0
  -18.4550    0.3250   -2.2750 F   0  0  0  0  0  0  0  0  0  0  0  0
  -19.1950   -1.1300   -0.7370 F   0  0  0  0  0  0  0  0  0  0  0  0
  -10.0453   -2.0069   -4.3181 C   0  0  0  0  0  0  0  0  0  0  0  0
   -9.8903   -3.8143   -2.9484 C   0  0  0  0  0  0  0  0  0  0  0  0
  -10.2391   -4.6422   -4.0501 C   0  0  0  0  0  0  0  0  0  0  0  0
  -10.7789   -3.2359   -4.8664 C   0  0  0  0  0  0  0  0  0  0  0  0
  -10.8471   -3.4062   -6.3494 C   0  0  0  0  0  0  0  0  0  0  0  0
  -11.6676   -4.3213   -6.7289 O   0  0  0  0  0  0  0  0  0  0  0  0
  -12.6893   -4.8889   -6.3856 C   0  0  0  0  0  0  0  0  0  0  0  0
  1  2  2  0
  2  3  1  0
  2 16  1  0
  3  4  1  0
  3  6  2  0
  4  5  1  0
  6  7  1  0
  7 15  1  0
  7  8  1  0
 11 12  1  0
 12 28  1  0
 12 27  1  0
 12 26  1  0
 15 16  1  0
 15 25  2  0
 16 17  1  0
 17 18  1  0
 18 19  1  0
 18 29  1  0
 18 30  1  0
 30 31  2  0
 29 32  1  0
 31 32  1  0
 32 33  1  0
 33 34  1  0
 34 35  1  0
  8  9  2  0
  9 10  1  0
 10 11  2  0
 11 13  1  0
 13 14  2  0
 14  8  1  0
 19 20  2  0
 20 21  1  0
 21 22  2  0
 22 23  1  0
 23 24  2  0
 24 19  1  0
M  END

$$$$
No_267-gen_results_new/Mpro_new_generate_500/2024-01-19-21-58-56/
     RDKit          3D

 35 38  0  0  0  0  0  0  0  0999 V2000
   -9.1300   -2.9100    0.4520 O   0  0  0  0  0  0  0  0  0  0  0  0
  -10.2490   -2.6420    0.1800 C   0  0  0  0  0  0  0  0  0  0  0  0
  -11.3800   -3.0650    1.0860 C   0  0  0  0  0  0  0  0  0  0  0  0
  -11.2000   -3.8390    2.3880 C   0  0  0  0  0  0  0  0  0  0  0  0
  -10.9900   -5.0690    2.3420 N   0  0  0  0  0  0  0  0  0  0  0  0
  -12.7310   -2.7290    0.7330 N   0  0  0  0  0  0  0  0  0  0  0  0
  -12.9960   -1.9940   -0.4510 N   0  0  0  0  0  0  0  0  0  0  0  0
  -14.3580   -1.6940   -0.7530 C   0  0  0  0  0  0  0  0  0  0  0  0
  -15.0390   -0.7180   -0.0560 C   0  0  0  0  0  0  0  0  0  0  0  0
  -16.3510   -0.4690   -0.3980 C   0  0  0  0  0  0  0  0  0  0  0  0
  -16.9430   -1.2030   -1.4080 C   0  0  0  0  0  0  0  0  0  0  0  0
  -18.3840   -0.9560   -1.8060 C   0  0  0  0  0  0  0  0  0  0  0  0
  -16.2510   -2.1690   -2.1000 C   0  0  0  0  0  0  0  0  0  0  0  0
  -14.9490   -2.4160   -1.7590 C   0  0  0  0  0  0  0  0  0  0  0  0
  -11.9050   -1.5730   -1.3540 C   0  0  0  0  0  0  0  0  0  0  0  0
  -10.5280   -1.9050   -1.0240 N   0  0  0  0  0  0  0  0  0  0  0  0
   -9.4550   -1.4720   -1.9190 C   0  0  0  0  0  0  0  0  0  0  0  0
   -9.2820   -2.3940   -3.1270 C   0  0  0  0  0  0  0  0  0  0  0  0
   -7.8170   -2.5500   -3.5360 C   0  0  0  0  0  0  0  0  0  0  0  0
   -6.9720   -3.3210   -2.7550 C   0  0  0  0  0  0  0  0  0  0  0  0
   -5.6390   -3.4770   -3.1110 C   0  0  0  0  0  0  0  0  0  0  0  0
   -5.1940   -2.8390   -4.2640 C   0  0  0  0  0  0  0  0  0  0  0  0
   -6.0850   -2.0780   -5.0070 C   0  0  0  0  0  0  0  0  0  0  0  0
   -7.3470   -1.9600   -4.6270 N   0  0  0  0  0  0  0  0  0  0  0  0
  -12.1450   -0.9640   -2.3390 O   0  0  0  0  0  0  0  0  0  0  0  0
  -18.7610   -1.8760   -2.7390 F   0  0  0  0  0  0  0  0  0  0  0  0
  -18.4550    0.3250   -2.2750 F   0  0  0  0  0  0  0  0  0  0  0  0
  -19.1950   -1.1300   -0.7370 F   0  0  0  0  0  0  0  0  0  0  0  0
  -10.1467   -3.0903   -3.8357 C   0  0  0  0  0  0  0  0  0  0  0  0
  -10.1681   -2.5855   -3.6007 C   0  0  0  0  0  0  0  0  0  0  0  0
  -10.5267   -1.6755   -4.6201 F   0  0  0  0  0  0  0  0  0  0  0  0
  -11.1668   -3.2599   -3.3596 F   0  0  0  0  0  0  0  0  0  0  0  0
  -10.0623   -2.9759   -4.5191 F   0  0  0  0  0  0  0  0  0  0  0  0
   -9.2025   -3.1247   -2.1261 O   0  0  0  0  0  0  0  0  0  0  0  0
   -8.1056   -3.4043   -1.2050 C   0  0  0  0  0  0  0  0  0  0  0  0
  1  2  2  0
  2  3  1  0
  2 16  1  0
  3  4  1  0
  3  6  2  0
  4  5  1  0
  6  7  1  0
  7 15  1  0
  7  8  1  0
 11 12  1  0
 12 28  1  0
 12 27  1  0
 12 26  1  0
 15 16  1  0
 15 25  2  0
 16 17  1  0
 17 18  1  0
 18 19  1  0
 18 29  1  0
 29 30  2  3
 30 31  1  0
 29 32  1  0
 30 33  1  0
 18 34  1  0
 20 35  1  0
 34 35  1  0
  8  9  2  0
  9 10  1  0
 10 11  2  0
 11 13  1  0
 13 14  2  0
 14  8  1  0
 19 20  1  0
 20 21  2  0
 21 22  1  0
 22 23  2  0
 23 24  1  0
 24 19  2  0
M  END

$$$$
No_268-gen_results_new/Mpro_new_generate_500/2024-01-19-21-58-56/
     RDKit          3D

 31 33  0  0  0  0  0  0  0  0999 V2000
   -9.1300   -2.9100    0.4520 O   0  0  0  0  0  0  0  0  0  0  0  0
  -10.2490   -2.6420    0.1800 C   0  0  0  0  0  0  0  0  0  0  0  0
  -11.3800   -3.0650    1.0860 C   0  0  0  0  0  0  0  0  0  0  0  0
  -11.2000   -3.8390    2.3880 C   0  0  0  0  0  0  0  0  0  0  0  0
  -10.9900   -5.0690    2.3420 N   0  0  0  0  0  0  0  0  0  0  0  0
  -12.7310   -2.7290    0.7330 N   0  0  0  0  0  0  0  0  0  0  0  0
  -12.9960   -1.9940   -0.4510 N   0  0  0  0  0  0  0  0  0  0  0  0
  -14.3580   -1.6940   -0.7530 C   0  0  0  0  0  0  0  0  0  0  0  0
  -15.0390   -0.7180   -0.0560 C   0  0  0  0  0  0  0  0  0  0  0  0
  -16.3510   -0.4690   -0.3980 C   0  0  0  0  0  0  0  0  0  0  0  0
  -16.9430   -1.2030   -1.4080 C   0  0  0  0  0  0  0  0  0  0  0  0
  -18.3840   -0.9560   -1.8060 C   0  0  0  0  0  0  0  0  0  0  0  0
  -16.2510   -2.1690   -2.1000 C   0  0  0  0  0  0  0  0  0  0  0  0
  -14.9490   -2.4160   -1.7590 C   0  0  0  0  0  0  0  0  0  0  0  0
  -11.9050   -1.5730   -1.3540 C   0  0  0  0  0  0  0  0  0  0  0  0
  -10.5280   -1.9050   -1.0240 N   0  0  0  0  0  0  0  0  0  0  0  0
   -9.4550   -1.4720   -1.9190 C   0  0  0  0  0  0  0  0  0  0  0  0
   -9.2820   -2.3940   -3.1270 C   0  0  0  0  0  0  0  0  0  0  0  0
   -7.8170   -2.5500   -3.5360 C   0  0  0  0  0  0  0  0  0  0  0  0
   -6.9720   -3.3210   -2.7550 C   0  0  0  0  0  0  0  0  0  0  0  0
   -5.6390   -3.4770   -3.1110 C   0  0  0  0  0  0  0  0  0  0  0  0
   -5.1940   -2.8390   -4.2640 C   0  0  0  0  0  0  0  0  0  0  0  0
   -6.0850   -2.0780   -5.0070 C   0  0  0  0  0  0  0  0  0  0  0  0
   -7.3470   -1.9600   -4.6270 N   0  0  0  0  0  0  0  0  0  0  0  0
  -12.1450   -0.9640   -2.3390 O   0  0  0  0  0  0  0  0  0  0  0  0
  -18.7610   -1.8760   -2.7390 F   0  0  0  0  0  0  0  0  0  0  0  0
  -18.4550    0.3250   -2.2750 F   0  0  0  0  0  0  0  0  0  0  0  0
  -19.1950   -1.1300   -0.7370 F   0  0  0  0  0  0  0  0  0  0  0  0
  -10.1861   -2.0270   -4.5221 S   0  0  0  0  0  0  0  0  0  0  0  0
  -11.2503   -3.4188   -4.5381 C   0  0  0  0  0  0  0  0  0  0  0  0
   -9.4370   -1.9542   -6.2375 S   0  0  0  0  0  0  0  0  0  0  0  0
  1  2  2  0
  2  3  1  0
  2 16  1  0
  3  4  1  0
  3  6  2  0
  4  5  1  0
  6  7  1  0
  7 15  1  0
  7  8  1  0
 11 12  1  0
 12 28  1  0
 12 27  1  0
 12 26  1  0
 15 16  1  0
 15 25  2  0
 16 17  1  0
 17 18  1  0
 18 19  1  0
 18 29  1  0
 29 30  1  0
 29 31  2  0
  8  9  2  0
  9 10  1  0
 10 11  2  0
 11 13  1  0
 13 14  2  0
 14  8  1  0
 19 20  2  0
 20 21  1  0
 21 22  2  0
 22 23  1  0
 23 24  2  0
 24 19  1  0
M  END

$$$$
No_269-gen_results_new/Mpro_new_generate_500/2024-01-19-21-58-56/
     RDKit          3D

 34 37  0  0  0  0  0  0  0  0999 V2000
   -9.1300   -2.9100    0.4520 O   0  0  0  0  0  0  0  0  0  0  0  0
  -10.2490   -2.6420    0.1800 C   0  0  0  0  0  0  0  0  0  0  0  0
  -11.3800   -3.0650    1.0860 C   0  0  0  0  0  0  0  0  0  0  0  0
  -11.2000   -3.8390    2.3880 C   0  0  0  0  0  0  0  0  0  0  0  0
  -10.9900   -5.0690    2.3420 N   0  0  0  0  0  0  0  0  0  0  0  0
  -12.7310   -2.7290    0.7330 N   0  0  0  0  0  0  0  0  0  0  0  0
  -12.9960   -1.9940   -0.4510 N   0  0  0  0  0  0  0  0  0  0  0  0
  -14.3580   -1.6940   -0.7530 C   0  0  0  0  0  0  0  0  0  0  0  0
  -15.0390   -0.7180   -0.0560 C   0  0  0  0  0  0  0  0  0  0  0  0
  -16.3510   -0.4690   -0.3980 C   0  0  0  0  0  0  0  0  0  0  0  0
  -16.9430   -1.2030   -1.4080 C   0  0  0  0  0  0  0  0  0  0  0  0
  -18.3840   -0.9560   -1.8060 C   0  0  0  0  0  0  0  0  0  0  0  0
  -16.2510   -2.1690   -2.1000 C   0  0  0  0  0  0  0  0  0  0  0  0
  -14.9490   -2.4160   -1.7590 C   0  0  0  0  0  0  0  0  0  0  0  0
  -11.9050   -1.5730   -1.3540 C   0  0  0  0  0  0  0  0  0  0  0  0
  -10.5280   -1.9050   -1.0240 N   0  0  0  0  0  0  0  0  0  0  0  0
   -9.4550   -1.4720   -1.9190 C   0  0  0  0  0  0  0  0  0  0  0  0
   -9.2820   -2.3940   -3.1270 C   0  0  0  0  0  0  0  0  0  0  0  0
   -7.8170   -2.5500   -3.5360 C   0  0  0  0  0  0  0  0  0  0  0  0
   -6.9720   -3.3210   -2.7550 C   0  0  0  0  0  0  0  0  0  0  0  0
   -5.6390   -3.4770   -3.1110 C   0  0  0  0  0  0  0  0  0  0  0  0
   -5.1940   -2.8390   -4.2640 C   0  0  0  0  0  0  0  0  0  0  0  0
   -6.0850   -2.0780   -5.0070 C   0  0  0  0  0  0  0  0  0  0  0  0
   -7.3470   -1.9600   -4.6270 N   0  0  0  0  0  0  0  0  0  0  0  0
  -12.1450   -0.9640   -2.3390 O   0  0  0  0  0  0  0  0  0  0  0  0
  -18.7610   -1.8760   -2.7390 F   0  0  0  0  0  0  0  0  0  0  0  0
  -18.4550    0.3250   -2.2750 F   0  0  0  0  0  0  0  0  0  0  0  0
  -19.1950   -1.1300   -0.7370 F   0  0  0  0  0  0  0  0  0  0  0  0
  -10.0453   -2.0069   -4.3181 C   0  0  0  0  0  0  0  0  0  0  0  0
   -9.8903   -3.8143   -2.9484 C   0  0  0  0  0  0  0  0  0  0  0  0
  -10.2391   -4.6422   -4.0501 C   0  0  0  0  0  0  0  0  0  0  0  0
  -10.7472   -3.2601   -4.8115 O   0  0  0  0  0  0  0  0  0  0  0  0
  -10.3554   -0.9113   -4.6824 O   0  0  0  0  0  0  0  0  0  0  0  0
   -9.0226   -4.7781   -2.3354 F   0  0  0  0  0  0  0  0  0  0  0  0
  1  2  2  0
  2  3  1  0
  2 16  1  0
  3  4  1  0
  3  6  2  0
  4  5  1  0
  6  7  1  0
  7 15  1  0
  7  8  1  0
 11 12  1  0
 12 28  1  0
 12 27  1  0
 12 26  1  0
 15 16  1  0
 15 25  2  0
 16 17  1  0
 17 18  1  0
 18 19  1  0
 18 29  1  0
 18 30  1  0
 30 31  2  0
 29 32  1  0
 31 32  1  0
 29 33  2  0
 30 34  1  0
  8  9  2  0
  9 10  1  0
 10 11  2  0
 11 13  1  0
 13 14  2  0
 14  8  1  0
 19 20  2  0
 20 21  1  0
 21 22  2  0
 22 23  1  0
 23 24  2  0
 24 19  1  0
M  END

$$$$
No_270-gen_results_new/Mpro_new_generate_500/2024-01-19-21-58-56/
     RDKit          3D

 35 38  0  0  0  0  0  0  0  0999 V2000
   -9.1300   -2.9100    0.4520 O   0  0  0  0  0  0  0  0  0  0  0  0
  -10.2490   -2.6420    0.1800 C   0  0  0  0  0  0  0  0  0  0  0  0
  -11.3800   -3.0650    1.0860 C   0  0  0  0  0  0  0  0  0  0  0  0
  -11.2000   -3.8390    2.3880 C   0  0  0  0  0  0  0  0  0  0  0  0
  -10.9900   -5.0690    2.3420 N   0  0  0  0  0  0  0  0  0  0  0  0
  -12.7310   -2.7290    0.7330 N   0  0  0  0  0  0  0  0  0  0  0  0
  -12.9960   -1.9940   -0.4510 N   0  0  0  0  0  0  0  0  0  0  0  0
  -14.3580   -1.6940   -0.7530 C   0  0  0  0  0  0  0  0  0  0  0  0
  -15.0390   -0.7180   -0.0560 C   0  0  0  0  0  0  0  0  0  0  0  0
  -16.3510   -0.4690   -0.3980 C   0  0  0  0  0  0  0  0  0  0  0  0
  -16.9430   -1.2030   -1.4080 C   0  0  0  0  0  0  0  0  0  0  0  0
  -18.3840   -0.9560   -1.8060 C   0  0  0  0  0  0  0  0  0  0  0  0
  -16.2510   -2.1690   -2.1000 C   0  0  0  0  0  0  0  0  0  0  0  0
  -14.9490   -2.4160   -1.7590 C   0  0  0  0  0  0  0  0  0  0  0  0
  -11.9050   -1.5730   -1.3540 C   0  0  0  0  0  0  0  0  0  0  0  0
  -10.5280   -1.9050   -1.0240 N   0  0  0  0  0  0  0  0  0  0  0  0
   -9.4550   -1.4720   -1.9190 C   0  0  0  0  0  0  0  0  0  0  0  0
   -9.2820   -2.3940   -3.1270 C   0  0  0  0  0  0  0  0  0  0  0  0
   -7.8170   -2.5500   -3.5360 C   0  0  0  0  0  0  0  0  0  0  0  0
   -6.9720   -3.3210   -2.7550 C   0  0  0  0  0  0  0  0  0  0  0  0
   -5.6390   -3.4770   -3.1110 C   0  0  0  0  0  0  0  0  0  0  0  0
   -5.1940   -2.8390   -4.2640 C   0  0  0  0  0  0  0  0  0  0  0  0
   -6.0850   -2.0780   -5.0070 C   0  0  0  0  0  0  0  0  0  0  0  0
   -7.3470   -1.9600   -4.6270 N   0  0  0  0  0  0  0  0  0  0  0  0
  -12.1450   -0.9640   -2.3390 O   0  0  0  0  0  0  0  0  0  0  0  0
  -18.7610   -1.8760   -2.7390 F   0  0  0  0  0  0  0  0  0  0  0  0
  -18.4550    0.3250   -2.2750 F   0  0  0  0  0  0  0  0  0  0  0  0
  -19.1950   -1.1300   -0.7370 F   0  0  0  0  0  0  0  0  0  0  0  0
   -9.7920   -3.7475   -2.8656 C   0  0  0  0  0  0  0  0  0  0  0  0
  -10.0717   -1.8029   -4.3549 C   0  0  0  0  0  0  0  0  0  0  0  0
  -10.8816   -4.2900   -3.6532 C   0  0  0  0  0  0  0  0  0  0  0  0
  -12.0097   -4.6997   -3.2143 F   0  0  0  0  0  0  0  0  0  0  0  0
  -10.8619   -4.7567   -4.8055 F   0  0  0  0  0  0  0  0  0  0  0  0
  -10.9520   -3.2738   -3.9029 C   0  0  0  0  0  0  0  0  0  0  0  0
  -12.1998   -2.8177   -3.8836 F   0  0  0  0  0  0  0  0  0  0  0  0
  1  2  2  0
  2  3  1  0
  2 16  1  0
  3  4  1  0
  3  6  2  0
  4  5  1  0
  6  7  1  0
  7 15  1  0
  7  8  1  0
 11 12  1  0
 12 28  1  0
 12 27  1  0
 12 26  1  0
 15 16  1  0
 15 25  2  0
 16 17  1  0
 17 18  1  0
 18 19  1  0
 18 29  1  0
 18 30  1  0
 29 31  1  0
 31 32  1  0
 31 33  1  0
 30 34  2  0
 31 34  1  0
 34 35  1  0
  8  9  2  0
  9 10  1  0
 10 11  2  0
 11 13  1  0
 13 14  2  0
 14  8  1  0
 19 20  2  0
 20 21  1  0
 21 22  2  0
 22 23  1  0
 23 24  2  0
 24 19  1  0
M  END

$$$$
No_271-gen_results_new/Mpro_new_generate_500/2024-01-19-21-58-56/
     RDKit          3D

 34 37  0  0  0  0  0  0  0  0999 V2000
   -9.1300   -2.9100    0.4520 O   0  0  0  0  0  0  0  0  0  0  0  0
  -10.2490   -2.6420    0.1800 C   0  0  0  0  0  0  0  0  0  0  0  0
  -11.3800   -3.0650    1.0860 C   0  0  0  0  0  0  0  0  0  0  0  0
  -11.2000   -3.8390    2.3880 C   0  0  0  0  0  0  0  0  0  0  0  0
  -10.9900   -5.0690    2.3420 N   0  0  0  0  0  0  0  0  0  0  0  0
  -12.7310   -2.7290    0.7330 N   0  0  0  0  0  0  0  0  0  0  0  0
  -12.9960   -1.9940   -0.4510 N   0  0  0  0  0  0  0  0  0  0  0  0
  -14.3580   -1.6940   -0.7530 C   0  0  0  0  0  0  0  0  0  0  0  0
  -15.0390   -0.7180   -0.0560 C   0  0  0  0  0  0  0  0  0  0  0  0
  -16.3510   -0.4690   -0.3980 C   0  0  0  0  0  0  0  0  0  0  0  0
  -16.9430   -1.2030   -1.4080 C   0  0  0  0  0  0  0  0  0  0  0  0
  -18.3840   -0.9560   -1.8060 C   0  0  0  0  0  0  0  0  0  0  0  0
  -16.2510   -2.1690   -2.1000 C   0  0  0  0  0  0  0  0  0  0  0  0
  -14.9490   -2.4160   -1.7590 C   0  0  0  0  0  0  0  0  0  0  0  0
  -11.9050   -1.5730   -1.3540 C   0  0  0  0  0  0  0  0  0  0  0  0
  -10.5280   -1.9050   -1.0240 N   0  0  0  0  0  0  0  0  0  0  0  0
   -9.4550   -1.4720   -1.9190 C   0  0  0  0  0  0  0  0  0  0  0  0
   -9.2820   -2.3940   -3.1270 C   0  0  0  0  0  0  0  0  0  0  0  0
   -7.8170   -2.5500   -3.5360 C   0  0  0  0  0  0  0  0  0  0  0  0
   -6.9720   -3.3210   -2.7550 C   0  0  0  0  0  0  0  0  0  0  0  0
   -5.6390   -3.4770   -3.1110 C   0  0  0  0  0  0  0  0  0  0  0  0
   -5.1940   -2.8390   -4.2640 C   0  0  0  0  0  0  0  0  0  0  0  0
   -6.0850   -2.0780   -5.0070 C   0  0  0  0  0  0  0  0  0  0  0  0
   -7.3470   -1.9600   -4.6270 N   0  0  0  0  0  0  0  0  0  0  0  0
  -12.1450   -0.9640   -2.3390 O   0  0  0  0  0  0  0  0  0  0  0  0
  -18.7610   -1.8760   -2.7390 F   0  0  0  0  0  0  0  0  0  0  0  0
  -18.4550    0.3250   -2.2750 F   0  0  0  0  0  0  0  0  0  0  0  0
  -19.1950   -1.1300   -0.7370 F   0  0  0  0  0  0  0  0  0  0  0  0
  -10.1467   -3.0903   -3.8357 C   0  0  0  0  0  0  0  0  0  0  0  0
  -10.1681   -2.5855   -3.6007 C   0  0  0  0  0  0  0  0  0  0  0  0
  -10.4499   -1.5957   -4.9129 C   0  0  0  0  0  0  0  0  0  0  0  0
  -11.2291   -3.9043   -4.0284 C   0  0  0  0  0  0  0  0  0  0  0  0
  -11.3351   -2.2469   -2.6782 O   0  0  0  0  0  0  0  0  0  0  0  0
  -12.2469   -3.3731   -3.1254 C   0  0  0  0  0  0  0  0  0  0  0  0
  1  2  2  0
  2  3  1  0
  2 16  1  0
  3  4  1  0
  3  6  2  0
  4  5  1  0
  6  7  1  0
  7 15  1  0
  7  8  1  0
 11 12  1  0
 12 28  1  0
 12 27  1  0
 12 26  1  0
 15 16  1  0
 15 25  2  0
 16 17  1  0
 17 18  1  0
 18 19  1  0
 18 29  1  0
 29 30  1  0
 30 31  2  0
 29 32  1  0
 30 33  1  0
 32 34  2  0
 33 34  1  0
  8  9  2  0
  9 10  1  0
 10 11  2  0
 11 13  1  0
 13 14  2  0
 14  8  1  0
 19 20  2  0
 20 21  1  0
 21 22  2  0
 22 23  1  0
 23 24  2  0
 24 19  1  0
M  END

$$$$
No_272-gen_results_new/Mpro_new_generate_500/2024-01-19-21-58-56/
     RDKit          3D

 33 35  0  0  0  0  0  0  0  0999 V2000
   -9.1300   -2.9100    0.4520 O   0  0  0  0  0  0  0  0  0  0  0  0
  -10.2490   -2.6420    0.1800 C   0  0  0  0  0  0  0  0  0  0  0  0
  -11.3800   -3.0650    1.0860 C   0  0  0  0  0  0  0  0  0  0  0  0
  -11.2000   -3.8390    2.3880 C   0  0  0  0  0  0  0  0  0  0  0  0
  -10.9900   -5.0690    2.3420 N   0  0  0  0  0  0  0  0  0  0  0  0
  -12.7310   -2.7290    0.7330 N   0  0  0  0  0  0  0  0  0  0  0  0
  -12.9960   -1.9940   -0.4510 N   0  0  0  0  0  0  0  0  0  0  0  0
  -14.3580   -1.6940   -0.7530 C   0  0  0  0  0  0  0  0  0  0  0  0
  -15.0390   -0.7180   -0.0560 C   0  0  0  0  0  0  0  0  0  0  0  0
  -16.3510   -0.4690   -0.3980 C   0  0  0  0  0  0  0  0  0  0  0  0
  -16.9430   -1.2030   -1.4080 C   0  0  0  0  0  0  0  0  0  0  0  0
  -18.3840   -0.9560   -1.8060 C   0  0  0  0  0  0  0  0  0  0  0  0
  -16.2510   -2.1690   -2.1000 C   0  0  0  0  0  0  0  0  0  0  0  0
  -14.9490   -2.4160   -1.7590 C   0  0  0  0  0  0  0  0  0  0  0  0
  -11.9050   -1.5730   -1.3540 C   0  0  0  0  0  0  0  0  0  0  0  0
  -10.5280   -1.9050   -1.0240 N   0  0  0  0  0  0  0  0  0  0  0  0
   -9.4550   -1.4720   -1.9190 C   0  0  0  0  0  0  0  0  0  0  0  0
   -9.2820   -2.3940   -3.1270 C   0  0  0  0  0  0  0  0  0  0  0  0
   -7.8170   -2.5500   -3.5360 C   0  0  0  0  0  0  0  0  0  0  0  0
   -6.9720   -3.3210   -2.7550 C   0  0  0  0  0  0  0  0  0  0  0  0
   -5.6390   -3.4770   -3.1110 C   0  0  0  0  0  0  0  0  0  0  0  0
   -5.1940   -2.8390   -4.2640 C   0  0  0  0  0  0  0  0  0  0  0  0
   -6.0850   -2.0780   -5.0070 C   0  0  0  0  0  0  0  0  0  0  0  0
   -7.3470   -1.9600   -4.6270 N   0  0  0  0  0  0  0  0  0  0  0  0
  -12.1450   -0.9640   -2.3390 O   0  0  0  0  0  0  0  0  0  0  0  0
  -18.7610   -1.8760   -2.7390 F   0  0  0  0  0  0  0  0  0  0  0  0
  -18.4550    0.3250   -2.2750 F   0  0  0  0  0  0  0  0  0  0  0  0
  -19.1950   -1.1300   -0.7370 F   0  0  0  0  0  0  0  0  0  0  0  0
  -10.0453   -2.0069   -4.3181 C   0  0  0  0  0  0  0  0  0  0  0  0
   -9.8903   -3.8143   -2.9484 C   0  0  0  0  0  0  0  0  0  0  0  0
   -9.4210   -4.7070   -2.0558 C   0  0  0  0  0  0  0  0  0  0  0  0
  -11.1635   -4.2241   -3.4837 C   0  0  0  0  0  0  0  0  0  0  0  0
  -10.9470   -4.5921   -4.6587 C   0  0  0  0  0  0  0  0  0  0  0  0
  1  2  2  0
  2  3  1  0
  2 16  1  0
  3  4  1  0
  3  6  2  0
  4  5  1  0
  6  7  1  0
  7 15  1  0
  7  8  1  0
 11 12  1  0
 12 28  1  0
 12 27  1  0
 12 26  1  0
 15 16  1  0
 15 25  2  0
 16 17  1  0
 17 18  1  0
 18 19  1  0
 18 29  1  0
 18 30  1  0
 30 31  1  0
 30 32  1  0
 32 33  1  0
  8  9  2  0
  9 10  1  0
 10 11  2  0
 11 13  1  0
 13 14  2  0
 14  8  1  0
 19 20  2  0
 20 21  1  0
 21 22  2  0
 22 23  1  0
 23 24  2  0
 24 19  1  0
M  END

$$$$
No_273-gen_results_new/Mpro_new_generate_500/2024-01-19-21-58-56/
     RDKit          3D

 35 37  0  0  0  0  0  0  0  0999 V2000
   -9.1300   -2.9100    0.4520 O   0  0  0  0  0  0  0  0  0  0  0  0
  -10.2490   -2.6420    0.1800 C   0  0  0  0  0  0  0  0  0  0  0  0
  -11.3800   -3.0650    1.0860 C   0  0  0  0  0  0  0  0  0  0  0  0
  -11.2000   -3.8390    2.3880 C   0  0  0  0  0  0  0  0  0  0  0  0
  -10.9900   -5.0690    2.3420 N   0  0  0  0  0  0  0  0  0  0  0  0
  -12.7310   -2.7290    0.7330 N   0  0  0  0  0  0  0  0  0  0  0  0
  -12.9960   -1.9940   -0.4510 N   0  0  0  0  0  0  0  0  0  0  0  0
  -14.3580   -1.6940   -0.7530 C   0  0  0  0  0  0  0  0  0  0  0  0
  -15.0390   -0.7180   -0.0560 C   0  0  0  0  0  0  0  0  0  0  0  0
  -16.3510   -0.4690   -0.3980 C   0  0  0  0  0  0  0  0  0  0  0  0
  -16.9430   -1.2030   -1.4080 C   0  0  0  0  0  0  0  0  0  0  0  0
  -18.3840   -0.9560   -1.8060 C   0  0  0  0  0  0  0  0  0  0  0  0
  -16.2510   -2.1690   -2.1000 C   0  0  0  0  0  0  0  0  0  0  0  0
  -14.9490   -2.4160   -1.7590 C   0  0  0  0  0  0  0  0  0  0  0  0
  -11.9050   -1.5730   -1.3540 C   0  0  0  0  0  0  0  0  0  0  0  0
  -10.5280   -1.9050   -1.0240 N   0  0  0  0  0  0  0  0  0  0  0  0
   -9.4550   -1.4720   -1.9190 C   0  0  0  0  0  0  0  0  0  0  0  0
   -9.2820   -2.3940   -3.1270 C   0  0  0  0  0  0  0  0  0  0  0  0
   -7.8170   -2.5500   -3.5360 C   0  0  0  0  0  0  0  0  0  0  0  0
   -6.9720   -3.3210   -2.7550 C   0  0  0  0  0  0  0  0  0  0  0  0
   -5.6390   -3.4770   -3.1110 C   0  0  0  0  0  0  0  0  0  0  0  0
   -5.1940   -2.8390   -4.2640 C   0  0  0  0  0  0  0  0  0  0  0  0
   -6.0850   -2.0780   -5.0070 C   0  0  0  0  0  0  0  0  0  0  0  0
   -7.3470   -1.9600   -4.6270 N   0  0  0  0  0  0  0  0  0  0  0  0
  -12.1450   -0.9640   -2.3390 O   0  0  0  0  0  0  0  0  0  0  0  0
  -18.7610   -1.8760   -2.7390 F   0  0  0  0  0  0  0  0  0  0  0  0
  -18.4550    0.3250   -2.2750 F   0  0  0  0  0  0  0  0  0  0  0  0
  -19.1950   -1.1300   -0.7370 F   0  0  0  0  0  0  0  0  0  0  0  0
   -9.7920   -3.7475   -2.8656 C   0  0  0  0  0  0  0  0  0  0  0  0
  -10.1387   -2.0206   -4.2903 C   0  0  0  0  0  0  0  0  0  0  0  0
  -10.0838   -4.4718   -4.0002 O   0  0  0  0  0  0  0  0  0  0  0  0
   -9.4208   -4.8257   -2.0283 C   0  0  0  0  0  0  0  0  0  0  0  0
   -9.4713   -5.5399   -4.4538 C   0  0  0  0  0  0  0  0  0  0  0  0
   -9.2104   -5.4249   -5.9326 C   0  0  0  0  0  0  0  0  0  0  0  0
  -10.2218   -5.4010   -6.7162 N   0  0  0  0  0  0  0  0  0  0  0  0
  1  2  2  0
  2  3  1  0
  2 16  1  0
  3  4  1  0
  3  6  2  0
  4  5  1  0
  6  7  1  0
  7 15  1  0
  7  8  1  0
 11 12  1  0
 12 28  1  0
 12 27  1  0
 12 26  1  0
 15 16  1  0
 15 25  2  0
 16 17  1  0
 17 18  1  0
 18 19  1  0
 18 29  1  0
 18 30  1  0
 29 31  1  0
 29 32  1  0
 31 33  1  0
 33 34  1  0
 34 35  1  0
  8  9  2  0
  9 10  1  0
 10 11  2  0
 11 13  1  0
 13 14  2  0
 14  8  1  0
 19 20  2  0
 20 21  1  0
 21 22  2  0
 22 23  1  0
 23 24  2  0
 24 19  1  0
M  END

$$$$
No_274-gen_results_new/Mpro_new_generate_500/2024-01-19-21-58-56/
     RDKit          3D

 35 38  0  0  0  0  0  0  0  0999 V2000
   -9.1300   -2.9100    0.4520 O   0  0  0  0  0  0  0  0  0  0  0  0
  -10.2490   -2.6420    0.1800 C   0  0  0  0  0  0  0  0  0  0  0  0
  -11.3800   -3.0650    1.0860 C   0  0  0  0  0  0  0  0  0  0  0  0
  -11.2000   -3.8390    2.3880 C   0  0  0  0  0  0  0  0  0  0  0  0
  -10.9900   -5.0690    2.3420 N   0  0  0  0  0  0  0  0  0  0  0  0
  -12.7310   -2.7290    0.7330 N   0  0  0  0  0  0  0  0  0  0  0  0
  -12.9960   -1.9940   -0.4510 N   0  0  0  0  0  0  0  0  0  0  0  0
  -14.3580   -1.6940   -0.7530 C   0  0  0  0  0  0  0  0  0  0  0  0
  -15.0390   -0.7180   -0.0560 C   0  0  0  0  0  0  0  0  0  0  0  0
  -16.3510   -0.4690   -0.3980 C   0  0  0  0  0  0  0  0  0  0  0  0
  -16.9430   -1.2030   -1.4080 C   0  0  0  0  0  0  0  0  0  0  0  0
  -18.3840   -0.9560   -1.8060 C   0  0  0  0  0  0  0  0  0  0  0  0
  -16.2510   -2.1690   -2.1000 C   0  0  0  0  0  0  0  0  0  0  0  0
  -14.9490   -2.4160   -1.7590 C   0  0  0  0  0  0  0  0  0  0  0  0
  -11.9050   -1.5730   -1.3540 C   0  0  0  0  0  0  0  0  0  0  0  0
  -10.5280   -1.9050   -1.0240 N   0  0  0  0  0  0  0  0  0  0  0  0
   -9.4550   -1.4720   -1.9190 C   0  0  0  0  0  0  0  0  0  0  0  0
   -9.2820   -2.3940   -3.1270 C   0  0  0  0  0  0  0  0  0  0  0  0
   -7.8170   -2.5500   -3.5360 C   0  0  0  0  0  0  0  0  0  0  0  0
   -6.9720   -3.3210   -2.7550 C   0  0  0  0  0  0  0  0  0  0  0  0
   -5.6390   -3.4770   -3.1110 C   0  0  0  0  0  0  0  0  0  0  0  0
   -5.1940   -2.8390   -4.2640 C   0  0  0  0  0  0  0  0  0  0  0  0
   -6.0850   -2.0780   -5.0070 C   0  0  0  0  0  0  0  0  0  0  0  0
   -7.3470   -1.9600   -4.6270 N   0  0  0  0  0  0  0  0  0  0  0  0
  -12.1450   -0.9640   -2.3390 O   0  0  0  0  0  0  0  0  0  0  0  0
  -18.7610   -1.8760   -2.7390 F   0  0  0  0  0  0  0  0  0  0  0  0
  -18.4550    0.3250   -2.2750 F   0  0  0  0  0  0  0  0  0  0  0  0
  -19.1950   -1.1300   -0.7370 F   0  0  0  0  0  0  0  0  0  0  0  0
   -9.7920   -3.7475   -2.8656 C   0  0  0  0  0  0  0  0  0  0  0  0
  -10.0268   -1.9037   -4.2201 F   0  0  0  0  0  0  0  0  0  0  0  0
  -10.9887   -4.2266   -3.7265 C   0  0  0  0  0  0  0  0  0  0  0  0
  -10.9795   -5.3703   -3.4036 O   0  0  0  0  0  0  0  0  0  0  0  0
  -10.9997   -5.4047   -2.2367 C   0  0  0  0  0  0  0  0  0  0  0  0
   -9.9076   -5.4553   -1.7663 C   0  0  0  0  0  0  0  0  0  0  0  0
   -9.2518   -4.5592   -2.0101 O   0  0  0  0  0  0  0  0  0  0  0  0
  1  2  2  0
  2  3  1  0
  2 16  1  0
  3  4  1  0
  3  6  2  0
  4  5  1  0
  6  7  1  0
  7 15  1  0
  7  8  1  0
 11 12  1  0
 12 28  1  0
 12 27  1  0
 12 26  1  0
 15 16  1  0
 15 25  2  0
 16 17  1  0
 17 18  1  0
 18 19  1  0
 18 29  1  0
 18 30  1  0
 29 31  1  0
 31 32  1  0
 32 33  1  0
 33 34  1  0
 29 35  1  0
 34 35  1  0
  8  9  2  0
  9 10  1  0
 10 11  2  0
 11 13  1  0
 13 14  2  0
 14  8  1  0
 19 20  2  0
 20 21  1  0
 21 22  2  0
 22 23  1  0
 23 24  2  0
 24 19  1  0
M  END

$$$$
No_275-gen_results_new/Mpro_new_generate_500/2024-01-19-21-58-56/
     RDKit          3D

 34 36  0  0  0  0  0  0  0  0999 V2000
   -9.1300   -2.9100    0.4520 O   0  0  0  0  0  0  0  0  0  0  0  0
  -10.2490   -2.6420    0.1800 C   0  0  0  0  0  0  0  0  0  0  0  0
  -11.3800   -3.0650    1.0860 C   0  0  0  0  0  0  0  0  0  0  0  0
  -11.2000   -3.8390    2.3880 C   0  0  0  0  0  0  0  0  0  0  0  0
  -10.9900   -5.0690    2.3420 N   0  0  0  0  0  0  0  0  0  0  0  0
  -12.7310   -2.7290    0.7330 N   0  0  0  0  0  0  0  0  0  0  0  0
  -12.9960   -1.9940   -0.4510 N   0  0  0  0  0  0  0  0  0  0  0  0
  -14.3580   -1.6940   -0.7530 C   0  0  0  0  0  0  0  0  0  0  0  0
  -15.0390   -0.7180   -0.0560 C   0  0  0  0  0  0  0  0  0  0  0  0
  -16.3510   -0.4690   -0.3980 C   0  0  0  0  0  0  0  0  0  0  0  0
  -16.9430   -1.2030   -1.4080 C   0  0  0  0  0  0  0  0  0  0  0  0
  -18.3840   -0.9560   -1.8060 C   0  0  0  0  0  0  0  0  0  0  0  0
  -16.2510   -2.1690   -2.1000 C   0  0  0  0  0  0  0  0  0  0  0  0
  -14.9490   -2.4160   -1.7590 C   0  0  0  0  0  0  0  0  0  0  0  0
  -11.9050   -1.5730   -1.3540 C   0  0  0  0  0  0  0  0  0  0  0  0
  -10.5280   -1.9050   -1.0240 N   0  0  0  0  0  0  0  0  0  0  0  0
   -9.4550   -1.4720   -1.9190 C   0  0  0  0  0  0  0  0  0  0  0  0
   -9.2820   -2.3940   -3.1270 C   0  0  0  0  0  0  0  0  0  0  0  0
   -7.8170   -2.5500   -3.5360 C   0  0  0  0  0  0  0  0  0  0  0  0
   -6.9720   -3.3210   -2.7550 C   0  0  0  0  0  0  0  0  0  0  0  0
   -5.6390   -3.4770   -3.1110 C   0  0  0  0  0  0  0  0  0  0  0  0
   -5.1940   -2.8390   -4.2640 C   0  0  0  0  0  0  0  0  0  0  0  0
   -6.0850   -2.0780   -5.0070 C   0  0  0  0  0  0  0  0  0  0  0  0
   -7.3470   -1.9600   -4.6270 N   0  0  0  0  0  0  0  0  0  0  0  0
  -12.1450   -0.9640   -2.3390 O   0  0  0  0  0  0  0  0  0  0  0  0
  -18.7610   -1.8760   -2.7390 F   0  0  0  0  0  0  0  0  0  0  0  0
  -18.4550    0.3250   -2.2750 F   0  0  0  0  0  0  0  0  0  0  0  0
  -19.1950   -1.1300   -0.7370 F   0  0  0  0  0  0  0  0  0  0  0  0
  -10.1467   -3.0903   -3.8357 C   0  0  0  0  0  0  0  0  0  0  0  0
  -10.1681   -2.5855   -3.6007 C   0  0  0  0  0  0  0  0  0  0  0  0
  -10.5499   -1.5778   -4.9257 C   0  0  0  0  0  0  0  0  0  0  0  0
  -11.2217   -2.5341   -3.0559 C   0  0  0  0  0  0  0  0  0  0  0  0
  -12.4628   -2.8818   -4.0421 F   0  0  0  0  0  0  0  0  0  0  0  0
  -11.5534   -3.7016   -2.2884 F   0  0  0  0  0  0  0  0  0  0  0  0
  1  2  2  0
  2  3  1  0
  2 16  1  0
  3  4  1  0
  3  6  2  0
  4  5  1  0
  6  7  1  0
  7 15  1  0
  7  8  1  0
 11 12  1  0
 12 28  1  0
 12 27  1  0
 12 26  1  0
 15 16  1  0
 15 25  2  0
 16 17  1  0
 17 18  1  0
 18 19  1  0
 18 29  1  0
 29 30  2  3
 30 31  1  0
 30 32  1  0
 32 33  1  0
 32 34  1  0
  8  9  2  0
  9 10  1  0
 10 11  2  0
 11 13  1  0
 13 14  2  0
 14  8  1  0
 19 20  2  0
 20 21  1  0
 21 22  2  0
 22 23  1  0
 23 24  2  0
 24 19  1  0
M  END

$$$$
No_276-gen_results_new/Mpro_new_generate_500/2024-01-19-21-58-56/
     RDKit          3D

 35 38  0  0  0  0  0  0  0  0999 V2000
   -9.1300   -2.9100    0.4520 O   0  0  0  0  0  0  0  0  0  0  0  0
  -10.2490   -2.6420    0.1800 C   0  0  0  0  0  0  0  0  0  0  0  0
  -11.3800   -3.0650    1.0860 C   0  0  0  0  0  0  0  0  0  0  0  0
  -11.2000   -3.8390    2.3880 C   0  0  0  0  0  0  0  0  0  0  0  0
  -10.9900   -5.0690    2.3420 N   0  0  0  0  0  0  0  0  0  0  0  0
  -12.7310   -2.7290    0.7330 N   0  0  0  0  0  0  0  0  0  0  0  0
  -12.9960   -1.9940   -0.4510 N   0  0  0  0  0  0  0  0  0  0  0  0
  -14.3580   -1.6940   -0.7530 C   0  0  0  0  0  0  0  0  0  0  0  0
  -15.0390   -0.7180   -0.0560 C   0  0  0  0  0  0  0  0  0  0  0  0
  -16.3510   -0.4690   -0.3980 C   0  0  0  0  0  0  0  0  0  0  0  0
  -16.9430   -1.2030   -1.4080 C   0  0  0  0  0  0  0  0  0  0  0  0
  -18.3840   -0.9560   -1.8060 C   0  0  0  0  0  0  0  0  0  0  0  0
  -16.2510   -2.1690   -2.1000 C   0  0  0  0  0  0  0  0  0  0  0  0
  -14.9490   -2.4160   -1.7590 C   0  0  0  0  0  0  0  0  0  0  0  0
  -11.9050   -1.5730   -1.3540 C   0  0  0  0  0  0  0  0  0  0  0  0
  -10.5280   -1.9050   -1.0240 N   0  0  0  0  0  0  0  0  0  0  0  0
   -9.4550   -1.4720   -1.9190 C   0  0  0  0  0  0  0  0  0  0  0  0
   -9.2820   -2.3940   -3.1270 C   0  0  0  0  0  0  0  0  0  0  0  0
   -7.8170   -2.5500   -3.5360 C   0  0  0  0  0  0  0  0  0  0  0  0
   -6.9720   -3.3210   -2.7550 C   0  0  0  0  0  0  0  0  0  0  0  0
   -5.6390   -3.4770   -3.1110 C   0  0  0  0  0  0  0  0  0  0  0  0
   -5.1940   -2.8390   -4.2640 C   0  0  0  0  0  0  0  0  0  0  0  0
   -6.0850   -2.0780   -5.0070 C   0  0  0  0  0  0  0  0  0  0  0  0
   -7.3470   -1.9600   -4.6270 N   0  0  0  0  0  0  0  0  0  0  0  0
  -12.1450   -0.9640   -2.3390 O   0  0  0  0  0  0  0  0  0  0  0  0
  -18.7610   -1.8760   -2.7390 F   0  0  0  0  0  0  0  0  0  0  0  0
  -18.4550    0.3250   -2.2750 F   0  0  0  0  0  0  0  0  0  0  0  0
  -19.1950   -1.1300   -0.7370 F   0  0  0  0  0  0  0  0  0  0  0  0
  -10.0453   -2.0069   -4.3181 C   0  0  0  0  0  0  0  0  0  0  0  0
   -9.8476   -3.8948   -2.8015 C   0  0  0  0  0  0  0  0  0  0  0  0
  -10.1714   -4.7331   -3.9309 C   0  0  0  0  0  0  0  0  0  0  0  0
  -10.6131   -4.1472   -4.9938 O   0  0  0  0  0  0  0  0  0  0  0  0
  -10.9143   -2.8234   -5.0615 C   0  0  0  0  0  0  0  0  0  0  0  0
  -11.1610   -2.3389   -6.5076 C   0  0  0  0  0  0  0  0  0  0  0  0
  -11.7860   -1.0766   -6.4517 C   0  0  0  0  0  0  0  0  0  0  0  0
  1  2  2  0
  2  3  1  0
  2 16  1  0
  3  4  1  0
  3  6  2  0
  4  5  1  0
  6  7  1  0
  7 15  1  0
  7  8  1  0
 11 12  1  0
 12 28  1  0
 12 27  1  0
 12 26  1  0
 15 16  1  0
 15 25  2  0
 16 17  1  0
 17 18  1  0
 18 19  1  0
 18 29  1  0
 18 30  1  0
 30 31  2  0
 31 32  1  0
 29 33  1  0
 32 33  1  0
 33 34  1  0
 34 35  2  0
  8  9  2  0
  9 10  1  0
 10 11  2  0
 11 13  1  0
 13 14  2  0
 14  8  1  0
 19 20  2  0
 20 21  1  0
 21 22  2  0
 22 23  1  0
 23 24  2  0
 24 19  1  0
M  END

$$$$
No_277-gen_results_new/Mpro_new_generate_500/2024-01-19-21-58-56/
     RDKit          3D

 35 37  0  0  0  0  0  0  0  0999 V2000
   -9.1300   -2.9100    0.4520 O   0  0  0  0  0  0  0  0  0  0  0  0
  -10.2490   -2.6420    0.1800 C   0  0  0  0  0  0  0  0  0  0  0  0
  -11.3800   -3.0650    1.0860 C   0  0  0  0  0  0  0  0  0  0  0  0
  -11.2000   -3.8390    2.3880 C   0  0  0  0  0  0  0  0  0  0  0  0
  -10.9900   -5.0690    2.3420 N   0  0  0  0  0  0  0  0  0  0  0  0
  -12.7310   -2.7290    0.7330 N   0  0  0  0  0  0  0  0  0  0  0  0
  -12.9960   -1.9940   -0.4510 N   0  0  0  0  0  0  0  0  0  0  0  0
  -14.3580   -1.6940   -0.7530 C   0  0  0  0  0  0  0  0  0  0  0  0
  -15.0390   -0.7180   -0.0560 C   0  0  0  0  0  0  0  0  0  0  0  0
  -16.3510   -0.4690   -0.3980 C   0  0  0  0  0  0  0  0  0  0  0  0
  -16.9430   -1.2030   -1.4080 C   0  0  0  0  0  0  0  0  0  0  0  0
  -18.3840   -0.9560   -1.8060 C   0  0  0  0  0  0  0  0  0  0  0  0
  -16.2510   -2.1690   -2.1000 C   0  0  0  0  0  0  0  0  0  0  0  0
  -14.9490   -2.4160   -1.7590 C   0  0  0  0  0  0  0  0  0  0  0  0
  -11.9050   -1.5730   -1.3540 C   0  0  0  0  0  0  0  0  0  0  0  0
  -10.5280   -1.9050   -1.0240 N   0  0  0  0  0  0  0  0  0  0  0  0
   -9.4550   -1.4720   -1.9190 C   0  0  0  0  0  0  0  0  0  0  0  0
   -9.2820   -2.3940   -3.1270 C   0  0  0  0  0  0  0  0  0  0  0  0
   -7.8170   -2.5500   -3.5360 C   0  0  0  0  0  0  0  0  0  0  0  0
   -6.9720   -3.3210   -2.7550 C   0  0  0  0  0  0  0  0  0  0  0  0
   -5.6390   -3.4770   -3.1110 C   0  0  0  0  0  0  0  0  0  0  0  0
   -5.1940   -2.8390   -4.2640 C   0  0  0  0  0  0  0  0  0  0  0  0
   -6.0850   -2.0780   -5.0070 C   0  0  0  0  0  0  0  0  0  0  0  0
   -7.3470   -1.9600   -4.6270 N   0  0  0  0  0  0  0  0  0  0  0  0
  -12.1450   -0.9640   -2.3390 O   0  0  0  0  0  0  0  0  0  0  0  0
  -18.7610   -1.8760   -2.7390 F   0  0  0  0  0  0  0  0  0  0  0  0
  -18.4550    0.3250   -2.2750 F   0  0  0  0  0  0  0  0  0  0  0  0
  -19.1950   -1.1300   -0.7370 F   0  0  0  0  0  0  0  0  0  0  0  0
  -10.0122   -2.0535   -4.1781 O   0  0  0  0  0  0  0  0  0  0  0  0
   -9.8786   -3.6143   -3.1098 F   0  0  0  0  0  0  0  0  0  0  0  0
  -10.0912   -2.8736   -5.3234 C   0  0  0  0  0  0  0  0  0  0  0  0
  -10.2583   -1.6731   -6.3448 C   0  0  0  0  0  0  0  0  0  0  0  0
  -11.4018   -1.0039   -6.2357 C   0  0  0  0  0  0  0  0  0  0  0  0
  -12.4836   -1.4538   -5.9863 O   0  0  0  0  0  0  0  0  0  0  0  0
  -11.2661    0.4199   -6.3686 N   0  0  0  0  0  0  0  0  0  0  0  0
  1  2  2  0
  2  3  1  0
  2 16  1  0
  3  4  1  0
  3  6  2  0
  4  5  1  0
  6  7  1  0
  7 15  1  0
  7  8  1  0
 11 12  1  0
 12 28  1  0
 12 27  1  0
 12 26  1  0
 15 16  1  0
 15 25  2  0
 16 17  1  0
 17 18  1  0
 18 19  1  0
 18 29  1  0
 18 30  1  0
 29 31  1  0
 31 32  1  0
 32 33  1  0
 33 34  2  0
 33 35  1  0
  8  9  2  0
  9 10  1  0
 10 11  2  0
 11 13  1  0
 13 14  2  0
 14  8  1  0
 19 20  2  0
 20 21  1  0
 21 22  2  0
 22 23  1  0
 23 24  2  0
 24 19  1  0
M  END

$$$$
No_278-gen_results_new/Mpro_new_generate_500/2024-01-19-21-58-56/
     RDKit          3D

 33 35  0  0  0  0  0  0  0  0999 V2000
   -9.1300   -2.9100    0.4520 O   0  0  0  0  0  0  0  0  0  0  0  0
  -10.2490   -2.6420    0.1800 C   0  0  0  0  0  0  0  0  0  0  0  0
  -11.3800   -3.0650    1.0860 C   0  0  0  0  0  0  0  0  0  0  0  0
  -11.2000   -3.8390    2.3880 C   0  0  0  0  0  0  0  0  0  0  0  0
  -10.9900   -5.0690    2.3420 N   0  0  0  0  0  0  0  0  0  0  0  0
  -12.7310   -2.7290    0.7330 N   0  0  0  0  0  0  0  0  0  0  0  0
  -12.9960   -1.9940   -0.4510 N   0  0  0  0  0  0  0  0  0  0  0  0
  -14.3580   -1.6940   -0.7530 C   0  0  0  0  0  0  0  0  0  0  0  0
  -15.0390   -0.7180   -0.0560 C   0  0  0  0  0  0  0  0  0  0  0  0
  -16.3510   -0.4690   -0.3980 C   0  0  0  0  0  0  0  0  0  0  0  0
  -16.9430   -1.2030   -1.4080 C   0  0  0  0  0  0  0  0  0  0  0  0
  -18.3840   -0.9560   -1.8060 C   0  0  0  0  0  0  0  0  0  0  0  0
  -16.2510   -2.1690   -2.1000 C   0  0  0  0  0  0  0  0  0  0  0  0
  -14.9490   -2.4160   -1.7590 C   0  0  0  0  0  0  0  0  0  0  0  0
  -11.9050   -1.5730   -1.3540 C   0  0  0  0  0  0  0  0  0  0  0  0
  -10.5280   -1.9050   -1.0240 N   0  0  0  0  0  0  0  0  0  0  0  0
   -9.4550   -1.4720   -1.9190 C   0  0  0  0  0  0  0  0  0  0  0  0
   -9.2820   -2.3940   -3.1270 C   0  0  0  0  0  0  0  0  0  0  0  0
   -7.8170   -2.5500   -3.5360 C   0  0  0  0  0  0  0  0  0  0  0  0
   -6.9720   -3.3210   -2.7550 C   0  0  0  0  0  0  0  0  0  0  0  0
   -5.6390   -3.4770   -3.1110 C   0  0  0  0  0  0  0  0  0  0  0  0
   -5.1940   -2.8390   -4.2640 C   0  0  0  0  0  0  0  0  0  0  0  0
   -6.0850   -2.0780   -5.0070 C   0  0  0  0  0  0  0  0  0  0  0  0
   -7.3470   -1.9600   -4.6270 N   0  0  0  0  0  0  0  0  0  0  0  0
  -12.1450   -0.9640   -2.3390 O   0  0  0  0  0  0  0  0  0  0  0  0
  -18.7610   -1.8760   -2.7390 F   0  0  0  0  0  0  0  0  0  0  0  0
  -18.4550    0.3250   -2.2750 F   0  0  0  0  0  0  0  0  0  0  0  0
  -19.1950   -1.1300   -0.7370 F   0  0  0  0  0  0  0  0  0  0  0  0
  -10.1467   -3.0903   -3.8357 C   0  0  0  0  0  0  0  0  0  0  0  0
  -10.1681   -2.5855   -3.6007 C   0  0  0  0  0  0  0  0  0  0  0  0
  -11.3308   -2.7701   -3.8546 C   0  0  0  0  0  0  0  0  0  0  0  0
  -10.3042   -1.7811   -5.0722 C   0  0  0  0  0  0  0  0  0  0  0  0
  -10.7778   -1.9237   -6.3062 C   0  0  0  0  0  0  0  0  0  0  0  0
  1  2  2  0
  2  3  1  0
  2 16  1  0
  3  4  1  0
  3  6  2  0
  4  5  1  0
  6  7  1  0
  7 15  1  0
  7  8  1  0
 11 12  1  0
 12 28  1  0
 12 27  1  0
 12 26  1  0
 15 16  1  0
 15 25  2  0
 16 17  1  0
 17 18  1  0
 18 19  1  0
 18 29  1  0
 29 30  1  0
 30 31  2  0
 30 32  1  0
 32 33  1  0
  8  9  2  0
  9 10  1  0
 10 11  2  0
 11 13  1  0
 13 14  2  0
 14  8  1  0
 19 20  2  0
 20 21  1  0
 21 22  2  0
 22 23  1  0
 23 24  2  0
 24 19  1  0
M  END

$$$$
No_279-gen_results_new/Mpro_new_generate_500/2024-01-19-21-58-56/
     RDKit          3D

 35 37  0  0  0  0  0  0  0  0999 V2000
   -9.1300   -2.9100    0.4520 O   0  0  0  0  0  0  0  0  0  0  0  0
  -10.2490   -2.6420    0.1800 C   0  0  0  0  0  0  0  0  0  0  0  0
  -11.3800   -3.0650    1.0860 C   0  0  0  0  0  0  0  0  0  0  0  0
  -11.2000   -3.8390    2.3880 C   0  0  0  0  0  0  0  0  0  0  0  0
  -10.9900   -5.0690    2.3420 N   0  0  0  0  0  0  0  0  0  0  0  0
  -12.7310   -2.7290    0.7330 N   0  0  0  0  0  0  0  0  0  0  0  0
  -12.9960   -1.9940   -0.4510 N   0  0  0  0  0  0  0  0  0  0  0  0
  -14.3580   -1.6940   -0.7530 C   0  0  0  0  0  0  0  0  0  0  0  0
  -15.0390   -0.7180   -0.0560 C   0  0  0  0  0  0  0  0  0  0  0  0
  -16.3510   -0.4690   -0.3980 C   0  0  0  0  0  0  0  0  0  0  0  0
  -16.9430   -1.2030   -1.4080 C   0  0  0  0  0  0  0  0  0  0  0  0
  -18.3840   -0.9560   -1.8060 C   0  0  0  0  0  0  0  0  0  0  0  0
  -16.2510   -2.1690   -2.1000 C   0  0  0  0  0  0  0  0  0  0  0  0
  -14.9490   -2.4160   -1.7590 C   0  0  0  0  0  0  0  0  0  0  0  0
  -11.9050   -1.5730   -1.3540 C   0  0  0  0  0  0  0  0  0  0  0  0
  -10.5280   -1.9050   -1.0240 N   0  0  0  0  0  0  0  0  0  0  0  0
   -9.4550   -1.4720   -1.9190 C   0  0  0  0  0  0  0  0  0  0  0  0
   -9.2820   -2.3940   -3.1270 C   0  0  0  0  0  0  0  0  0  0  0  0
   -7.8170   -2.5500   -3.5360 C   0  0  0  0  0  0  0  0  0  0  0  0
   -6.9720   -3.3210   -2.7550 C   0  0  0  0  0  0  0  0  0  0  0  0
   -5.6390   -3.4770   -3.1110 C   0  0  0  0  0  0  0  0  0  0  0  0
   -5.1940   -2.8390   -4.2640 C   0  0  0  0  0  0  0  0  0  0  0  0
   -6.0850   -2.0780   -5.0070 C   0  0  0  0  0  0  0  0  0  0  0  0
   -7.3470   -1.9600   -4.6270 N   0  0  0  0  0  0  0  0  0  0  0  0
  -12.1450   -0.9640   -2.3390 O   0  0  0  0  0  0  0  0  0  0  0  0
  -18.7610   -1.8760   -2.7390 F   0  0  0  0  0  0  0  0  0  0  0  0
  -18.4550    0.3250   -2.2750 F   0  0  0  0  0  0  0  0  0  0  0  0
  -19.1950   -1.1300   -0.7370 F   0  0  0  0  0  0  0  0  0  0  0  0
  -10.0453   -2.0069   -4.3181 C   0  0  0  0  0  0  0  0  0  0  0  0
   -9.8476   -3.8948   -2.8015 C   0  0  0  0  0  0  0  0  0  0  0  0
  -10.1714   -4.7331   -3.9309 C   0  0  0  0  0  0  0  0  0  0  0  0
  -10.6131   -4.1472   -4.9938 O   0  0  0  0  0  0  0  0  0  0  0  0
  -11.1984   -5.1483   -5.9820 C   0  0  0  0  0  0  0  0  0  0  0  0
  -12.5406   -5.1143   -6.1872 C   0  0  0  0  0  0  0  0  0  0  0  0
  -10.2808   -5.7311   -6.8873 C   0  0  0  0  0  0  0  0  0  0  0  0
  1  2  2  0
  2  3  1  0
  2 16  1  0
  3  4  1  0
  3  6  2  0
  4  5  1  0
  6  7  1  0
  7 15  1  0
  7  8  1  0
 11 12  1  0
 12 28  1  0
 12 27  1  0
 12 26  1  0
 15 16  1  0
 15 25  2  0
 16 17  1  0
 17 18  1  0
 18 19  1  0
 18 29  1  0
 18 30  1  0
 30 31  2  3
 31 32  1  0
 32 33  1  0
 33 34  2  0
 33 35  1  0
  8  9  2  0
  9 10  1  0
 10 11  2  0
 11 13  1  0
 13 14  2  0
 14  8  1  0
 19 20  2  0
 20 21  1  0
 21 22  2  0
 22 23  1  0
 23 24  2  0
 24 19  1  0
M  END

$$$$
No_280-gen_results_new/Mpro_new_generate_500/2024-01-19-21-58-56/
     RDKit          3D

 35 38  0  0  0  0  0  0  0  0999 V2000
   -9.1300   -2.9100    0.4520 O   0  0  0  0  0  0  0  0  0  0  0  0
  -10.2490   -2.6420    0.1800 C   0  0  0  0  0  0  0  0  0  0  0  0
  -11.3800   -3.0650    1.0860 C   0  0  0  0  0  0  0  0  0  0  0  0
  -11.2000   -3.8390    2.3880 C   0  0  0  0  0  0  0  0  0  0  0  0
  -10.9900   -5.0690    2.3420 N   0  0  0  0  0  0  0  0  0  0  0  0
  -12.7310   -2.7290    0.7330 N   0  0  0  0  0  0  0  0  0  0  0  0
  -12.9960   -1.9940   -0.4510 N   0  0  0  0  0  0  0  0  0  0  0  0
  -14.3580   -1.6940   -0.7530 C   0  0  0  0  0  0  0  0  0  0  0  0
  -15.0390   -0.7180   -0.0560 C   0  0  0  0  0  0  0  0  0  0  0  0
  -16.3510   -0.4690   -0.3980 C   0  0  0  0  0  0  0  0  0  0  0  0
  -16.9430   -1.2030   -1.4080 C   0  0  0  0  0  0  0  0  0  0  0  0
  -18.3840   -0.9560   -1.8060 C   0  0  0  0  0  0  0  0  0  0  0  0
  -16.2510   -2.1690   -2.1000 C   0  0  0  0  0  0  0  0  0  0  0  0
  -14.9490   -2.4160   -1.7590 C   0  0  0  0  0  0  0  0  0  0  0  0
  -11.9050   -1.5730   -1.3540 C   0  0  0  0  0  0  0  0  0  0  0  0
  -10.5280   -1.9050   -1.0240 N   0  0  0  0  0  0  0  0  0  0  0  0
   -9.4550   -1.4720   -1.9190 C   0  0  0  0  0  0  0  0  0  0  0  0
   -9.2820   -2.3940   -3.1270 C   0  0  0  0  0  0  0  0  0  0  0  0
   -7.8170   -2.5500   -3.5360 C   0  0  0  0  0  0  0  0  0  0  0  0
   -6.9720   -3.3210   -2.7550 C   0  0  0  0  0  0  0  0  0  0  0  0
   -5.6390   -3.4770   -3.1110 C   0  0  0  0  0  0  0  0  0  0  0  0
   -5.1940   -2.8390   -4.2640 C   0  0  0  0  0  0  0  0  0  0  0  0
   -6.0850   -2.0780   -5.0070 C   0  0  0  0  0  0  0  0  0  0  0  0
   -7.3470   -1.9600   -4.6270 N   0  0  0  0  0  0  0  0  0  0  0  0
  -12.1450   -0.9640   -2.3390 O   0  0  0  0  0  0  0  0  0  0  0  0
  -18.7610   -1.8760   -2.7390 F   0  0  0  0  0  0  0  0  0  0  0  0
  -18.4550    0.3250   -2.2750 F   0  0  0  0  0  0  0  0  0  0  0  0
  -19.1950   -1.1300   -0.7370 F   0  0  0  0  0  0  0  0  0  0  0  0
   -9.7920   -3.7475   -2.8656 C   0  0  0  0  0  0  0  0  0  0  0  0
   -9.9778   -1.5944   -4.2803 C   0  0  0  0  0  0  0  0  0  0  0  0
   -9.9974   -4.6360   -4.1639 C   0  0  0  0  0  0  0  0  0  0  0  0
  -11.3227   -3.7636   -2.4518 C   0  0  0  0  0  0  0  0  0  0  0  0
  -11.6089   -5.1884   -2.0167 C   0  0  0  0  0  0  0  0  0  0  0  0
  -12.2301   -4.0999   -3.4477 O   0  0  0  0  0  0  0  0  0  0  0  0
  -11.8444   -5.1085   -4.1611 C   0  0  0  0  0  0  0  0  0  0  0  0
  1  2  2  0
  2  3  1  0
  2 16  1  0
  3  4  1  0
  3  6  2  0
  4  5  1  0
  6  7  1  0
  7 15  1  0
  7  8  1  0
 11 12  1  0
 12 28  1  0
 12 27  1  0
 12 26  1  0
 15 16  1  0
 15 25  2  0
 16 17  1  0
 17 18  1  0
 18 19  1  0
 18 29  1  0
 18 30  1  0
 29 31  1  0
 29 32  1  0
 32 33  1  0
 32 34  1  0
 31 35  1  0
 34 35  1  0
  8  9  2  0
  9 10  1  0
 10 11  2  0
 11 13  1  0
 13 14  2  0
 14  8  1  0
 19 20  2  0
 20 21  1  0
 21 22  2  0
 22 23  1  0
 23 24  2  0
 24 19  1  0
M  END

$$$$
No_281-gen_results_new/Mpro_new_generate_500/2024-01-19-21-58-56/
     RDKit          3D

 35 38  0  0  0  0  0  0  0  0999 V2000
   -9.1300   -2.9100    0.4520 O   0  0  0  0  0  0  0  0  0  0  0  0
  -10.2490   -2.6420    0.1800 C   0  0  0  0  0  0  0  0  0  0  0  0
  -11.3800   -3.0650    1.0860 C   0  0  0  0  0  0  0  0  0  0  0  0
  -11.2000   -3.8390    2.3880 C   0  0  0  0  0  0  0  0  0  0  0  0
  -10.9900   -5.0690    2.3420 N   0  0  0  0  0  0  0  0  0  0  0  0
  -12.7310   -2.7290    0.7330 N   0  0  0  0  0  0  0  0  0  0  0  0
  -12.9960   -1.9940   -0.4510 N   0  0  0  0  0  0  0  0  0  0  0  0
  -14.3580   -1.6940   -0.7530 C   0  0  0  0  0  0  0  0  0  0  0  0
  -15.0390   -0.7180   -0.0560 C   0  0  0  0  0  0  0  0  0  0  0  0
  -16.3510   -0.4690   -0.3980 C   0  0  0  0  0  0  0  0  0  0  0  0
  -16.9430   -1.2030   -1.4080 C   0  0  0  0  0  0  0  0  0  0  0  0
  -18.3840   -0.9560   -1.8060 C   0  0  0  0  0  0  0  0  0  0  0  0
  -16.2510   -2.1690   -2.1000 C   0  0  0  0  0  0  0  0  0  0  0  0
  -14.9490   -2.4160   -1.7590 C   0  0  0  0  0  0  0  0  0  0  0  0
  -11.9050   -1.5730   -1.3540 C   0  0  0  0  0  0  0  0  0  0  0  0
  -10.5280   -1.9050   -1.0240 N   0  0  0  0  0  0  0  0  0  0  0  0
   -9.4550   -1.4720   -1.9190 C   0  0  0  0  0  0  0  0  0  0  0  0
   -9.2820   -2.3940   -3.1270 C   0  0  0  0  0  0  0  0  0  0  0  0
   -7.8170   -2.5500   -3.5360 C   0  0  0  0  0  0  0  0  0  0  0  0
   -6.9720   -3.3210   -2.7550 C   0  0  0  0  0  0  0  0  0  0  0  0
   -5.6390   -3.4770   -3.1110 C   0  0  0  0  0  0  0  0  0  0  0  0
   -5.1940   -2.8390   -4.2640 C   0  0  0  0  0  0  0  0  0  0  0  0
   -6.0850   -2.0780   -5.0070 C   0  0  0  0  0  0  0  0  0  0  0  0
   -7.3470   -1.9600   -4.6270 N   0  0  0  0  0  0  0  0  0  0  0  0
  -12.1450   -0.9640   -2.3390 O   0  0  0  0  0  0  0  0  0  0  0  0
  -18.7610   -1.8760   -2.7390 F   0  0  0  0  0  0  0  0  0  0  0  0
  -18.4550    0.3250   -2.2750 F   0  0  0  0  0  0  0  0  0  0  0  0
  -19.1950   -1.1300   -0.7370 F   0  0  0  0  0  0  0  0  0  0  0  0
   -9.7920   -3.7475   -2.8656 C   0  0  0  0  0  0  0  0  0  0  0  0
  -10.1387   -2.0206   -4.2903 C   0  0  0  0  0  0  0  0  0  0  0  0
  -10.7383   -4.2958   -3.7467 C   0  0  0  0  0  0  0  0  0  0  0  0
  -11.7046   -5.3891   -3.5055 C   0  0  0  0  0  0  0  0  0  0  0  0
  -13.0516   -5.0585   -3.2922 C   0  0  0  0  0  0  0  0  0  0  0  0
  -14.0648   -4.8293   -3.8677 C   0  0  0  0  0  0  0  0  0  0  0  0
  -11.0553   -3.1625   -4.6878 C   0  0  0  0  0  0  0  0  0  0  0  0
  1  2  2  0
  2  3  1  0
  2 16  1  0
  3  4  1  0
  3  6  2  0
  4  5  1  0
  6  7  1  0
  7 15  1  0
  7  8  1  0
 11 12  1  0
 12 28  1  0
 12 27  1  0
 12 26  1  0
 15 16  1  0
 15 25  2  0
 16 17  1  0
 17 18  1  0
 18 19  1  0
 18 29  1  0
 18 30  1  0
 29 31  1  0
 31 32  1  0
 32 33  1  0
 33 34  2  0
 30 35  1  0
 31 35  1  0
  8  9  2  0
  9 10  1  0
 10 11  2  0
 11 13  1  0
 13 14  2  0
 14  8  1  0
 19 20  2  0
 20 21  1  0
 21 22  2  0
 22 23  1  0
 23 24  2  0
 24 19  1  0
M  END

$$$$
No_282-gen_results_new/Mpro_new_generate_500/2024-01-19-21-58-56/
     RDKit          3D

 35 38  0  0  0  0  0  0  0  0999 V2000
   -9.1300   -2.9100    0.4520 O   0  0  0  0  0  0  0  0  0  0  0  0
  -10.2490   -2.6420    0.1800 C   0  0  0  0  0  0  0  0  0  0  0  0
  -11.3800   -3.0650    1.0860 C   0  0  0  0  0  0  0  0  0  0  0  0
  -11.2000   -3.8390    2.3880 C   0  0  0  0  0  0  0  0  0  0  0  0
  -10.9900   -5.0690    2.3420 N   0  0  0  0  0  0  0  0  0  0  0  0
  -12.7310   -2.7290    0.7330 N   0  0  0  0  0  0  0  0  0  0  0  0
  -12.9960   -1.9940   -0.4510 N   0  0  0  0  0  0  0  0  0  0  0  0
  -14.3580   -1.6940   -0.7530 C   0  0  0  0  0  0  0  0  0  0  0  0
  -15.0390   -0.7180   -0.0560 C   0  0  0  0  0  0  0  0  0  0  0  0
  -16.3510   -0.4690   -0.3980 C   0  0  0  0  0  0  0  0  0  0  0  0
  -16.9430   -1.2030   -1.4080 C   0  0  0  0  0  0  0  0  0  0  0  0
  -18.3840   -0.9560   -1.8060 C   0  0  0  0  0  0  0  0  0  0  0  0
  -16.2510   -2.1690   -2.1000 C   0  0  0  0  0  0  0  0  0  0  0  0
  -14.9490   -2.4160   -1.7590 C   0  0  0  0  0  0  0  0  0  0  0  0
  -11.9050   -1.5730   -1.3540 C   0  0  0  0  0  0  0  0  0  0  0  0
  -10.5280   -1.9050   -1.0240 N   0  0  0  0  0  0  0  0  0  0  0  0
   -9.4550   -1.4720   -1.9190 C   0  0  0  0  0  0  0  0  0  0  0  0
   -9.2820   -2.3940   -3.1270 C   0  0  0  0  0  0  0  0  0  0  0  0
   -7.8170   -2.5500   -3.5360 C   0  0  0  0  0  0  0  0  0  0  0  0
   -6.9720   -3.3210   -2.7550 C   0  0  0  0  0  0  0  0  0  0  0  0
   -5.6390   -3.4770   -3.1110 C   0  0  0  0  0  0  0  0  0  0  0  0
   -5.1940   -2.8390   -4.2640 C   0  0  0  0  0  0  0  0  0  0  0  0
   -6.0850   -2.0780   -5.0070 C   0  0  0  0  0  0  0  0  0  0  0  0
   -7.3470   -1.9600   -4.6270 N   0  0  0  0  0  0  0  0  0  0  0  0
  -12.1450   -0.9640   -2.3390 O   0  0  0  0  0  0  0  0  0  0  0  0
  -18.7610   -1.8760   -2.7390 F   0  0  0  0  0  0  0  0  0  0  0  0
  -18.4550    0.3250   -2.2750 F   0  0  0  0  0  0  0  0  0  0  0  0
  -19.1950   -1.1300   -0.7370 F   0  0  0  0  0  0  0  0  0  0  0  0
   -9.7561   -3.5765   -2.9053 O   0  0  0  0  0  0  0  0  0  0  0  0
  -10.1654   -2.2318   -4.2998 C   0  0  0  0  0  0  0  0  0  0  0  0
  -11.1514   -3.3323   -4.8277 C   0  0  0  0  0  0  0  0  0  0  0  0
  -11.8954   -2.8189   -5.5050 F   0  0  0  0  0  0  0  0  0  0  0  0
  -11.4382   -4.4868   -4.3451 O   0  0  0  0  0  0  0  0  0  0  0  0
  -10.2190   -4.4710   -3.5684 C   0  0  0  0  0  0  0  0  0  0  0  0
   -9.9890   -1.0877   -4.7486 O   0  0  0  0  0  0  0  0  0  0  0  0
  1  2  2  0
  2  3  1  0
  2 16  1  0
  3  4  1  0
  3  6  2  0
  4  5  1  0
  6  7  1  0
  7 15  1  0
  7  8  1  0
 11 12  1  0
 12 28  1  0
 12 27  1  0
 12 26  1  0
 15 16  1  0
 15 25  2  0
 16 17  1  0
 17 18  1  0
 18 19  1  0
 18 29  1  0
 18 30  1  0
 30 31  1  0
 31 32  1  0
 31 33  1  0
 29 34  1  0
 33 34  1  0
 30 35  2  0
  8  9  2  0
  9 10  1  0
 10 11  2  0
 11 13  1  0
 13 14  2  0
 14  8  1  0
 19 20  2  0
 20 21  1  0
 21 22  2  0
 22 23  1  0
 23 24  2  0
 24 19  1  0
M  END

$$$$
No_283-gen_results_new/Mpro_new_generate_500/2024-01-19-21-58-56/
     RDKit          3D

 33 35  0  0  0  0  0  0  0  0999 V2000
   -9.1300   -2.9100    0.4520 O   0  0  0  0  0  0  0  0  0  0  0  0
  -10.2490   -2.6420    0.1800 C   0  0  0  0  0  0  0  0  0  0  0  0
  -11.3800   -3.0650    1.0860 C   0  0  0  0  0  0  0  0  0  0  0  0
  -11.2000   -3.8390    2.3880 C   0  0  0  0  0  0  0  0  0  0  0  0
  -10.9900   -5.0690    2.3420 N   0  0  0  0  0  0  0  0  0  0  0  0
  -12.7310   -2.7290    0.7330 N   0  0  0  0  0  0  0  0  0  0  0  0
  -12.9960   -1.9940   -0.4510 N   0  0  0  0  0  0  0  0  0  0  0  0
  -14.3580   -1.6940   -0.7530 C   0  0  0  0  0  0  0  0  0  0  0  0
  -15.0390   -0.7180   -0.0560 C   0  0  0  0  0  0  0  0  0  0  0  0
  -16.3510   -0.4690   -0.3980 C   0  0  0  0  0  0  0  0  0  0  0  0
  -16.9430   -1.2030   -1.4080 C   0  0  0  0  0  0  0  0  0  0  0  0
  -18.3840   -0.9560   -1.8060 C   0  0  0  0  0  0  0  0  0  0  0  0
  -16.2510   -2.1690   -2.1000 C   0  0  0  0  0  0  0  0  0  0  0  0
  -14.9490   -2.4160   -1.7590 C   0  0  0  0  0  0  0  0  0  0  0  0
  -11.9050   -1.5730   -1.3540 C   0  0  0  0  0  0  0  0  0  0  0  0
  -10.5280   -1.9050   -1.0240 N   0  0  0  0  0  0  0  0  0  0  0  0
   -9.4550   -1.4720   -1.9190 C   0  0  0  0  0  0  0  0  0  0  0  0
   -9.2820   -2.3940   -3.1270 C   0  0  0  0  0  0  0  0  0  0  0  0
   -7.8170   -2.5500   -3.5360 C   0  0  0  0  0  0  0  0  0  0  0  0
   -6.9720   -3.3210   -2.7550 C   0  0  0  0  0  0  0  0  0  0  0  0
   -5.6390   -3.4770   -3.1110 C   0  0  0  0  0  0  0  0  0  0  0  0
   -5.1940   -2.8390   -4.2640 C   0  0  0  0  0  0  0  0  0  0  0  0
   -6.0850   -2.0780   -5.0070 C   0  0  0  0  0  0  0  0  0  0  0  0
   -7.3470   -1.9600   -4.6270 N   0  0  0  0  0  0  0  0  0  0  0  0
  -12.1450   -0.9640   -2.3390 O   0  0  0  0  0  0  0  0  0  0  0  0
  -18.7610   -1.8760   -2.7390 F   0  0  0  0  0  0  0  0  0  0  0  0
  -18.4550    0.3250   -2.2750 F   0  0  0  0  0  0  0  0  0  0  0  0
  -19.1950   -1.1300   -0.7370 F   0  0  0  0  0  0  0  0  0  0  0  0
  -10.1467   -3.0903   -3.8357 C   0  0  0  0  0  0  0  0  0  0  0  0
  -10.1681   -2.5855   -3.6007 C   0  0  0  0  0  0  0  0  0  0  0  0
  -10.4499   -1.5957   -4.9129 C   0  0  0  0  0  0  0  0  0  0  0  0
  -11.2291   -3.9043   -4.0284 C   0  0  0  0  0  0  0  0  0  0  0  0
  -11.2537   -2.2639   -2.7419 F   0  0  0  0  0  0  0  0  0  0  0  0
  1  2  2  0
  2  3  1  0
  2 16  1  0
  3  4  1  0
  3  6  2  0
  4  5  1  0
  6  7  1  0
  7 15  1  0
  7  8  1  0
 11 12  1  0
 12 28  1  0
 12 27  1  0
 12 26  1  0
 15 16  1  0
 15 25  2  0
 16 17  1  0
 17 18  1  0
 18 19  1  0
 18 29  1  0
 29 30  1  0
 30 31  2  0
 29 32  1  0
 30 33  1  0
  8  9  2  0
  9 10  1  0
 10 11  2  0
 11 13  1  0
 13 14  2  0
 14  8  1  0
 19 20  2  0
 20 21  1  0
 21 22  2  0
 22 23  1  0
 23 24  2  0
 24 19  1  0
M  END

$$$$
No_284-gen_results_new/Mpro_new_generate_500/2024-01-19-21-58-56/
     RDKit          3D

 32 34  0  0  0  0  0  0  0  0999 V2000
   -9.1300   -2.9100    0.4520 O   0  0  0  0  0  0  0  0  0  0  0  0
  -10.2490   -2.6420    0.1800 C   0  0  0  0  0  0  0  0  0  0  0  0
  -11.3800   -3.0650    1.0860 C   0  0  0  0  0  0  0  0  0  0  0  0
  -11.2000   -3.8390    2.3880 C   0  0  0  0  0  0  0  0  0  0  0  0
  -10.9900   -5.0690    2.3420 N   0  0  0  0  0  0  0  0  0  0  0  0
  -12.7310   -2.7290    0.7330 N   0  0  0  0  0  0  0  0  0  0  0  0
  -12.9960   -1.9940   -0.4510 N   0  0  0  0  0  0  0  0  0  0  0  0
  -14.3580   -1.6940   -0.7530 C   0  0  0  0  0  0  0  0  0  0  0  0
  -15.0390   -0.7180   -0.0560 C   0  0  0  0  0  0  0  0  0  0  0  0
  -16.3510   -0.4690   -0.3980 C   0  0  0  0  0  0  0  0  0  0  0  0
  -16.9430   -1.2030   -1.4080 C   0  0  0  0  0  0  0  0  0  0  0  0
  -18.3840   -0.9560   -1.8060 C   0  0  0  0  0  0  0  0  0  0  0  0
  -16.2510   -2.1690   -2.1000 C   0  0  0  0  0  0  0  0  0  0  0  0
  -14.9490   -2.4160   -1.7590 C   0  0  0  0  0  0  0  0  0  0  0  0
  -11.9050   -1.5730   -1.3540 C   0  0  0  0  0  0  0  0  0  0  0  0
  -10.5280   -1.9050   -1.0240 N   0  0  0  0  0  0  0  0  0  0  0  0
   -9.4550   -1.4720   -1.9190 C   0  0  0  0  0  0  0  0  0  0  0  0
   -9.2820   -2.3940   -3.1270 C   0  0  0  0  0  0  0  0  0  0  0  0
   -7.8170   -2.5500   -3.5360 C   0  0  0  0  0  0  0  0  0  0  0  0
   -6.9720   -3.3210   -2.7550 C   0  0  0  0  0  0  0  0  0  0  0  0
   -5.6390   -3.4770   -3.1110 C   0  0  0  0  0  0  0  0  0  0  0  0
   -5.1940   -2.8390   -4.2640 C   0  0  0  0  0  0  0  0  0  0  0  0
   -6.0850   -2.0780   -5.0070 C   0  0  0  0  0  0  0  0  0  0  0  0
   -7.3470   -1.9600   -4.6270 N   0  0  0  0  0  0  0  0  0  0  0  0
  -12.1450   -0.9640   -2.3390 O   0  0  0  0  0  0  0  0  0  0  0  0
  -18.7610   -1.8760   -2.7390 F   0  0  0  0  0  0  0  0  0  0  0  0
  -18.4550    0.3250   -2.2750 F   0  0  0  0  0  0  0  0  0  0  0  0
  -19.1950   -1.1300   -0.7370 F   0  0  0  0  0  0  0  0  0  0  0  0
  -10.1467   -3.0903   -3.8357 C   0  0  0  0  0  0  0  0  0  0  0  0
  -10.1681   -2.5855   -3.6007 C   0  0  0  0  0  0  0  0  0  0  0  0
  -11.3272   -2.1323   -3.8488 F   0  0  0  0  0  0  0  0  0  0  0  0
  -10.0522   -3.4944   -4.6053 C   0  0  0  0  0  0  0  0  0  0  0  0
  1  2  2  0
  2  3  1  0
  2 16  1  0
  3  4  1  0
  3  6  2  0
  4  5  1  0
  6  7  1  0
  7 15  1  0
  7  8  1  0
 11 12  1  0
 12 28  1  0
 12 27  1  0
 12 26  1  0
 15 16  1  0
 15 25  2  0
 16 17  1  0
 17 18  1  0
 18 19  1  0
 18 29  1  0
 29 30  1  0
 30 31  1  0
 29 32  1  0
  8  9  2  0
  9 10  1  0
 10 11  2  0
 11 13  1  0
 13 14  2  0
 14  8  1  0
 19 20  2  0
 20 21  1  0
 21 22  2  0
 22 23  1  0
 23 24  2  0
 24 19  1  0
M  END

$$$$
No_285-gen_results_new/Mpro_new_generate_500/2024-01-19-21-58-56/
     RDKit          3D

 34 36  0  0  0  0  0  0  0  0999 V2000
   -9.1300   -2.9100    0.4520 O   0  0  0  0  0  0  0  0  0  0  0  0
  -10.2490   -2.6420    0.1800 C   0  0  0  0  0  0  0  0  0  0  0  0
  -11.3800   -3.0650    1.0860 C   0  0  0  0  0  0  0  0  0  0  0  0
  -11.2000   -3.8390    2.3880 C   0  0  0  0  0  0  0  0  0  0  0  0
  -10.9900   -5.0690    2.3420 N   0  0  0  0  0  0  0  0  0  0  0  0
  -12.7310   -2.7290    0.7330 N   0  0  0  0  0  0  0  0  0  0  0  0
  -12.9960   -1.9940   -0.4510 N   0  0  0  0  0  0  0  0  0  0  0  0
  -14.3580   -1.6940   -0.7530 C   0  0  0  0  0  0  0  0  0  0  0  0
  -15.0390   -0.7180   -0.0560 C   0  0  0  0  0  0  0  0  0  0  0  0
  -16.3510   -0.4690   -0.3980 C   0  0  0  0  0  0  0  0  0  0  0  0
  -16.9430   -1.2030   -1.4080 C   0  0  0  0  0  0  0  0  0  0  0  0
  -18.3840   -0.9560   -1.8060 C   0  0  0  0  0  0  0  0  0  0  0  0
  -16.2510   -2.1690   -2.1000 C   0  0  0  0  0  0  0  0  0  0  0  0
  -14.9490   -2.4160   -1.7590 C   0  0  0  0  0  0  0  0  0  0  0  0
  -11.9050   -1.5730   -1.3540 C   0  0  0  0  0  0  0  0  0  0  0  0
  -10.5280   -1.9050   -1.0240 N   0  0  0  0  0  0  0  0  0  0  0  0
   -9.4550   -1.4720   -1.9190 C   0  0  0  0  0  0  0  0  0  0  0  0
   -9.2820   -2.3940   -3.1270 C   0  0  0  0  0  0  0  0  0  0  0  0
   -7.8170   -2.5500   -3.5360 C   0  0  0  0  0  0  0  0  0  0  0  0
   -6.9720   -3.3210   -2.7550 C   0  0  0  0  0  0  0  0  0  0  0  0
   -5.6390   -3.4770   -3.1110 C   0  0  0  0  0  0  0  0  0  0  0  0
   -5.1940   -2.8390   -4.2640 C   0  0  0  0  0  0  0  0  0  0  0  0
   -6.0850   -2.0780   -5.0070 C   0  0  0  0  0  0  0  0  0  0  0  0
   -7.3470   -1.9600   -4.6270 N   0  0  0  0  0  0  0  0  0  0  0  0
  -12.1450   -0.9640   -2.3390 O   0  0  0  0  0  0  0  0  0  0  0  0
  -18.7610   -1.8760   -2.7390 F   0  0  0  0  0  0  0  0  0  0  0  0
  -18.4550    0.3250   -2.2750 F   0  0  0  0  0  0  0  0  0  0  0  0
  -19.1950   -1.1300   -0.7370 F   0  0  0  0  0  0  0  0  0  0  0  0
   -9.7920   -3.7475   -2.8656 C   0  0  0  0  0  0  0  0  0  0  0  0
  -10.0717   -1.8029   -4.3549 C   0  0  0  0  0  0  0  0  0  0  0  0
  -10.0419   -4.6597   -4.1091 C   0  0  0  0  0  0  0  0  0  0  0  0
  -11.0513   -4.6012   -4.7444 C   0  0  0  0  0  0  0  0  0  0  0  0
  -12.2088   -4.3692   -4.2913 F   0  0  0  0  0  0  0  0  0  0  0  0
  -11.1884   -5.1330   -5.9768 F   0  0  0  0  0  0  0  0  0  0  0  0
  1  2  2  0
  2  3  1  0
  2 16  1  0
  3  4  1  0
  3  6  2  0
  4  5  1  0
  6  7  1  0
  7 15  1  0
  7  8  1  0
 11 12  1  0
 12 28  1  0
 12 27  1  0
 12 26  1  0
 15 16  1  0
 15 25  2  0
 16 17  1  0
 17 18  1  0
 18 19  1  0
 18 29  1  0
 18 30  1  0
 29 31  2  3
 31 32  1  0
 32 33  1  0
 32 34  1  0
  8  9  2  0
  9 10  1  0
 10 11  2  0
 11 13  1  0
 13 14  2  0
 14  8  1  0
 19 20  2  0
 20 21  1  0
 21 22  2  0
 22 23  1  0
 23 24  2  0
 24 19  1  0
M  END

$$$$
No_286-gen_results_new/Mpro_new_generate_500/2024-01-19-21-58-56/
     RDKit          3D

 34 37  0  0  0  0  0  0  0  0999 V2000
   -9.1300   -2.9100    0.4520 O   0  0  0  0  0  0  0  0  0  0  0  0
  -10.2490   -2.6420    0.1800 C   0  0  0  0  0  0  0  0  0  0  0  0
  -11.3800   -3.0650    1.0860 C   0  0  0  0  0  0  0  0  0  0  0  0
  -11.2000   -3.8390    2.3880 C   0  0  0  0  0  0  0  0  0  0  0  0
  -10.9900   -5.0690    2.3420 N   0  0  0  0  0  0  0  0  0  0  0  0
  -12.7310   -2.7290    0.7330 N   0  0  0  0  0  0  0  0  0  0  0  0
  -12.9960   -1.9940   -0.4510 N   0  0  0  0  0  0  0  0  0  0  0  0
  -14.3580   -1.6940   -0.7530 C   0  0  0  0  0  0  0  0  0  0  0  0
  -15.0390   -0.7180   -0.0560 C   0  0  0  0  0  0  0  0  0  0  0  0
  -16.3510   -0.4690   -0.3980 C   0  0  0  0  0  0  0  0  0  0  0  0
  -16.9430   -1.2030   -1.4080 C   0  0  0  0  0  0  0  0  0  0  0  0
  -18.3840   -0.9560   -1.8060 C   0  0  0  0  0  0  0  0  0  0  0  0
  -16.2510   -2.1690   -2.1000 C   0  0  0  0  0  0  0  0  0  0  0  0
  -14.9490   -2.4160   -1.7590 C   0  0  0  0  0  0  0  0  0  0  0  0
  -11.9050   -1.5730   -1.3540 C   0  0  0  0  0  0  0  0  0  0  0  0
  -10.5280   -1.9050   -1.0240 N   0  0  0  0  0  0  0  0  0  0  0  0
   -9.4550   -1.4720   -1.9190 C   0  0  0  0  0  0  0  0  0  0  0  0
   -9.2820   -2.3940   -3.1270 C   0  0  0  0  0  0  0  0  0  0  0  0
   -7.8170   -2.5500   -3.5360 C   0  0  0  0  0  0  0  0  0  0  0  0
   -6.9720   -3.3210   -2.7550 C   0  0  0  0  0  0  0  0  0  0  0  0
   -5.6390   -3.4770   -3.1110 C   0  0  0  0  0  0  0  0  0  0  0  0
   -5.1940   -2.8390   -4.2640 C   0  0  0  0  0  0  0  0  0  0  0  0
   -6.0850   -2.0780   -5.0070 C   0  0  0  0  0  0  0  0  0  0  0  0
   -7.3470   -1.9600   -4.6270 N   0  0  0  0  0  0  0  0  0  0  0  0
  -12.1450   -0.9640   -2.3390 O   0  0  0  0  0  0  0  0  0  0  0  0
  -18.7610   -1.8760   -2.7390 F   0  0  0  0  0  0  0  0  0  0  0  0
  -18.4550    0.3250   -2.2750 F   0  0  0  0  0  0  0  0  0  0  0  0
  -19.1950   -1.1300   -0.7370 F   0  0  0  0  0  0  0  0  0  0  0  0
  -10.0453   -2.0069   -4.3181 C   0  0  0  0  0  0  0  0  0  0  0  0
   -9.8476   -3.8948   -2.8015 C   0  0  0  0  0  0  0  0  0  0  0  0
  -10.1714   -4.7331   -3.9309 C   0  0  0  0  0  0  0  0  0  0  0  0
  -10.6131   -4.1472   -4.9938 O   0  0  0  0  0  0  0  0  0  0  0  0
  -10.9143   -2.8234   -5.0615 C   0  0  0  0  0  0  0  0  0  0  0  0
  -11.1244   -2.2411   -6.7878 Cl  0  0  0  0  0  0  0  0  0  0  0  0
  1  2  2  0
  2  3  1  0
  2 16  1  0
  3  4  1  0
  3  6  2  0
  4  5  1  0
  6  7  1  0
  7 15  1  0
  7  8  1  0
 11 12  1  0
 12 28  1  0
 12 27  1  0
 12 26  1  0
 15 16  1  0
 15 25  2  0
 16 17  1  0
 17 18  1  0
 18 19  1  0
 18 29  1  0
 18 30  1  0
 30 31  2  0
 31 32  1  0
 29 33  2  0
 32 33  1  0
 33 34  1  0
  8  9  2  0
  9 10  1  0
 10 11  2  0
 11 13  1  0
 13 14  2  0
 14  8  1  0
 19 20  2  0
 20 21  1  0
 21 22  2  0
 22 23  1  0
 23 24  2  0
 24 19  1  0
M  END

$$$$
No_287-gen_results_new/Mpro_new_generate_500/2024-01-19-21-58-56/
     RDKit          3D

 34 37  0  0  0  0  0  0  0  0999 V2000
   -9.1300   -2.9100    0.4520 O   0  0  0  0  0  0  0  0  0  0  0  0
  -10.2490   -2.6420    0.1800 C   0  0  0  0  0  0  0  0  0  0  0  0
  -11.3800   -3.0650    1.0860 C   0  0  0  0  0  0  0  0  0  0  0  0
  -11.2000   -3.8390    2.3880 C   0  0  0  0  0  0  0  0  0  0  0  0
  -10.9900   -5.0690    2.3420 N   0  0  0  0  0  0  0  0  0  0  0  0
  -12.7310   -2.7290    0.7330 N   0  0  0  0  0  0  0  0  0  0  0  0
  -12.9960   -1.9940   -0.4510 N   0  0  0  0  0  0  0  0  0  0  0  0
  -14.3580   -1.6940   -0.7530 C   0  0  0  0  0  0  0  0  0  0  0  0
  -15.0390   -0.7180   -0.0560 C   0  0  0  0  0  0  0  0  0  0  0  0
  -16.3510   -0.4690   -0.3980 C   0  0  0  0  0  0  0  0  0  0  0  0
  -16.9430   -1.2030   -1.4080 C   0  0  0  0  0  0  0  0  0  0  0  0
  -18.3840   -0.9560   -1.8060 C   0  0  0  0  0  0  0  0  0  0  0  0
  -16.2510   -2.1690   -2.1000 C   0  0  0  0  0  0  0  0  0  0  0  0
  -14.9490   -2.4160   -1.7590 C   0  0  0  0  0  0  0  0  0  0  0  0
  -11.9050   -1.5730   -1.3540 C   0  0  0  0  0  0  0  0  0  0  0  0
  -10.5280   -1.9050   -1.0240 N   0  0  0  0  0  0  0  0  0  0  0  0
   -9.4550   -1.4720   -1.9190 C   0  0  0  0  0  0  0  0  0  0  0  0
   -9.2820   -2.3940   -3.1270 C   0  0  0  0  0  0  0  0  0  0  0  0
   -7.8170   -2.5500   -3.5360 C   0  0  0  0  0  0  0  0  0  0  0  0
   -6.9720   -3.3210   -2.7550 C   0  0  0  0  0  0  0  0  0  0  0  0
   -5.6390   -3.4770   -3.1110 C   0  0  0  0  0  0  0  0  0  0  0  0
   -5.1940   -2.8390   -4.2640 C   0  0  0  0  0  0  0  0  0  0  0  0
   -6.0850   -2.0780   -5.0070 C   0  0  0  0  0  0  0  0  0  0  0  0
   -7.3470   -1.9600   -4.6270 N   0  0  0  0  0  0  0  0  0  0  0  0
  -12.1450   -0.9640   -2.3390 O   0  0  0  0  0  0  0  0  0  0  0  0
  -18.7610   -1.8760   -2.7390 F   0  0  0  0  0  0  0  0  0  0  0  0
  -18.4550    0.3250   -2.2750 F   0  0  0  0  0  0  0  0  0  0  0  0
  -19.1950   -1.1300   -0.7370 F   0  0  0  0  0  0  0  0  0  0  0  0
  -10.0453   -2.0069   -4.3181 C   0  0  0  0  0  0  0  0  0  0  0  0
   -9.8476   -3.8948   -2.8015 C   0  0  0  0  0  0  0  0  0  0  0  0
   -9.1680   -4.8526   -2.1325 C   0  0  0  0  0  0  0  0  0  0  0  0
  -11.1739   -4.2861   -3.1669 C   0  0  0  0  0  0  0  0  0  0  0  0
  -10.0063   -5.7596   -1.7325 O   0  0  0  0  0  0  0  0  0  0  0  0
  -11.1992   -5.5253   -2.4547 C   0  0  0  0  0  0  0  0  0  0  0  0
  1  2  2  0
  2  3  1  0
  2 16  1  0
  3  4  1  0
  3  6  2  0
  4  5  1  0
  6  7  1  0
  7 15  1  0
  7  8  1  0
 11 12  1  0
 12 28  1  0
 12 27  1  0
 12 26  1  0
 15 16  1  0
 15 25  2  0
 16 17  1  0
 17 18  1  0
 18 19  1  0
 18 29  1  0
 18 30  1  0
 30 31  2  0
 30 32  1  0
 31 33  1  0
 32 34  2  0
 33 34  1  0
  8  9  2  0
  9 10  1  0
 10 11  2  0
 11 13  1  0
 13 14  2  0
 14  8  1  0
 19 20  2  0
 20 21  1  0
 21 22  2  0
 22 23  1  0
 23 24  2  0
 24 19  1  0
M  END

$$$$
No_288-gen_results_new/Mpro_new_generate_500/2024-01-19-21-58-56/
     RDKit          3D

 32 34  0  0  0  0  0  0  0  0999 V2000
   -9.1300   -2.9100    0.4520 O   0  0  0  0  0  0  0  0  0  0  0  0
  -10.2490   -2.6420    0.1800 C   0  0  0  0  0  0  0  0  0  0  0  0
  -11.3800   -3.0650    1.0860 C   0  0  0  0  0  0  0  0  0  0  0  0
  -11.2000   -3.8390    2.3880 C   0  0  0  0  0  0  0  0  0  0  0  0
  -10.9900   -5.0690    2.3420 N   0  0  0  0  0  0  0  0  0  0  0  0
  -12.7310   -2.7290    0.7330 N   0  0  0  0  0  0  0  0  0  0  0  0
  -12.9960   -1.9940   -0.4510 N   0  0  0  0  0  0  0  0  0  0  0  0
  -14.3580   -1.6940   -0.7530 C   0  0  0  0  0  0  0  0  0  0  0  0
  -15.0390   -0.7180   -0.0560 C   0  0  0  0  0  0  0  0  0  0  0  0
  -16.3510   -0.4690   -0.3980 C   0  0  0  0  0  0  0  0  0  0  0  0
  -16.9430   -1.2030   -1.4080 C   0  0  0  0  0  0  0  0  0  0  0  0
  -18.3840   -0.9560   -1.8060 C   0  0  0  0  0  0  0  0  0  0  0  0
  -16.2510   -2.1690   -2.1000 C   0  0  0  0  0  0  0  0  0  0  0  0
  -14.9490   -2.4160   -1.7590 C   0  0  0  0  0  0  0  0  0  0  0  0
  -11.9050   -1.5730   -1.3540 C   0  0  0  0  0  0  0  0  0  0  0  0
  -10.5280   -1.9050   -1.0240 N   0  0  0  0  0  0  0  0  0  0  0  0
   -9.4550   -1.4720   -1.9190 C   0  0  0  0  0  0  0  0  0  0  0  0
   -9.2820   -2.3940   -3.1270 C   0  0  0  0  0  0  0  0  0  0  0  0
   -7.8170   -2.5500   -3.5360 C   0  0  0  0  0  0  0  0  0  0  0  0
   -6.9720   -3.3210   -2.7550 C   0  0  0  0  0  0  0  0  0  0  0  0
   -5.6390   -3.4770   -3.1110 C   0  0  0  0  0  0  0  0  0  0  0  0
   -5.1940   -2.8390   -4.2640 C   0  0  0  0  0  0  0  0  0  0  0  0
   -6.0850   -2.0780   -5.0070 C   0  0  0  0  0  0  0  0  0  0  0  0
   -7.3470   -1.9600   -4.6270 N   0  0  0  0  0  0  0  0  0  0  0  0
  -12.1450   -0.9640   -2.3390 O   0  0  0  0  0  0  0  0  0  0  0  0
  -18.7610   -1.8760   -2.7390 F   0  0  0  0  0  0  0  0  0  0  0  0
  -18.4550    0.3250   -2.2750 F   0  0  0  0  0  0  0  0  0  0  0  0
  -19.1950   -1.1300   -0.7370 F   0  0  0  0  0  0  0  0  0  0  0  0
  -10.0453   -2.0069   -4.3181 C   0  0  0  0  0  0  0  0  0  0  0  0
   -9.8714   -3.6444   -2.9942 F   0  0  0  0  0  0  0  0  0  0  0  0
  -11.0676   -3.0930   -4.9392 C   0  0  0  0  0  0  0  0  0  0  0  0
   -9.4813   -1.3733   -5.4037 C   0  0  0  0  0  0  0  0  0  0  0  0
  1  2  2  0
  2  3  1  0
  2 16  1  0
  3  4  1  0
  3  6  2  0
  4  5  1  0
  6  7  1  0
  7 15  1  0
  7  8  1  0
 11 12  1  0
 12 28  1  0
 12 27  1  0
 12 26  1  0
 15 16  1  0
 15 25  2  0
 16 17  1  0
 17 18  1  0
 18 19  1  0
 18 29  1  0
 18 30  1  0
 29 31  1  0
 29 32  1  0
  8  9  2  0
  9 10  1  0
 10 11  2  0
 11 13  1  0
 13 14  2  0
 14  8  1  0
 19 20  2  0
 20 21  1  0
 21 22  2  0
 22 23  1  0
 23 24  2  0
 24 19  1  0
M  END

$$$$
No_289-gen_results_new/Mpro_new_generate_500/2024-01-19-21-58-56/
     RDKit          3D

 33 36  0  0  0  0  0  0  0  0999 V2000
   -9.1300   -2.9100    0.4520 O   0  0  0  0  0  0  0  0  0  0  0  0
  -10.2490   -2.6420    0.1800 C   0  0  0  0  0  0  0  0  0  0  0  0
  -11.3800   -3.0650    1.0860 C   0  0  0  0  0  0  0  0  0  0  0  0
  -11.2000   -3.8390    2.3880 C   0  0  0  0  0  0  0  0  0  0  0  0
  -10.9900   -5.0690    2.3420 N   0  0  0  0  0  0  0  0  0  0  0  0
  -12.7310   -2.7290    0.7330 N   0  0  0  0  0  0  0  0  0  0  0  0
  -12.9960   -1.9940   -0.4510 N   0  0  0  0  0  0  0  0  0  0  0  0
  -14.3580   -1.6940   -0.7530 C   0  0  0  0  0  0  0  0  0  0  0  0
  -15.0390   -0.7180   -0.0560 C   0  0  0  0  0  0  0  0  0  0  0  0
  -16.3510   -0.4690   -0.3980 C   0  0  0  0  0  0  0  0  0  0  0  0
  -16.9430   -1.2030   -1.4080 C   0  0  0  0  0  0  0  0  0  0  0  0
  -18.3840   -0.9560   -1.8060 C   0  0  0  0  0  0  0  0  0  0  0  0
  -16.2510   -2.1690   -2.1000 C   0  0  0  0  0  0  0  0  0  0  0  0
  -14.9490   -2.4160   -1.7590 C   0  0  0  0  0  0  0  0  0  0  0  0
  -11.9050   -1.5730   -1.3540 C   0  0  0  0  0  0  0  0  0  0  0  0
  -10.5280   -1.9050   -1.0240 N   0  0  0  0  0  0  0  0  0  0  0  0
   -9.4550   -1.4720   -1.9190 C   0  0  0  0  0  0  0  0  0  0  0  0
   -9.2820   -2.3940   -3.1270 C   0  0  0  0  0  0  0  0  0  0  0  0
   -7.8170   -2.5500   -3.5360 C   0  0  0  0  0  0  0  0  0  0  0  0
   -6.9720   -3.3210   -2.7550 C   0  0  0  0  0  0  0  0  0  0  0  0
   -5.6390   -3.4770   -3.1110 C   0  0  0  0  0  0  0  0  0  0  0  0
   -5.1940   -2.8390   -4.2640 C   0  0  0  0  0  0  0  0  0  0  0  0
   -6.0850   -2.0780   -5.0070 C   0  0  0  0  0  0  0  0  0  0  0  0
   -7.3470   -1.9600   -4.6270 N   0  0  0  0  0  0  0  0  0  0  0  0
  -12.1450   -0.9640   -2.3390 O   0  0  0  0  0  0  0  0  0  0  0  0
  -18.7610   -1.8760   -2.7390 F   0  0  0  0  0  0  0  0  0  0  0  0
  -18.4550    0.3250   -2.2750 F   0  0  0  0  0  0  0  0  0  0  0  0
  -19.1950   -1.1300   -0.7370 F   0  0  0  0  0  0  0  0  0  0  0  0
  -10.1467   -3.0903   -3.8357 C   0  0  0  0  0  0  0  0  0  0  0  0
  -10.1681   -2.5855   -3.6007 C   0  0  0  0  0  0  0  0  0  0  0  0
  -11.4388   -2.8299   -3.7977 C   0  0  0  0  0  0  0  0  0  0  0  0
  -10.3111   -1.4896   -5.0982 Cl  0  0  0  0  0  0  0  0  0  0  0  0
   -9.8244   -1.5889   -3.2205 O   0  0  0  0  0  0  0  0  0  0  0  0
  1  2  2  0
  2  3  1  0
  2 16  1  0
  3  4  1  0
  3  6  2  0
  4  5  1  0
  6  7  1  0
  7 15  1  0
  7  8  1  0
 11 12  1  0
 12 28  1  0
 12 27  1  0
 12 26  1  0
 15 16  1  0
 15 25  2  0
 16 17  1  0
 17 18  1  0
 18 19  1  0
 18 29  1  0
 29 30  2  0
 29 31  1  0
 30 32  1  0
 18 33  1  0
 30 33  1  0
  8  9  2  0
  9 10  1  0
 10 11  2  0
 11 13  1  0
 13 14  2  0
 14  8  1  0
 19 20  2  0
 20 21  1  0
 21 22  2  0
 22 23  1  0
 23 24  2  0
 24 19  1  0
M  END

$$$$
No_290-gen_results_new/Mpro_new_generate_500/2024-01-19-21-58-56/
     RDKit          3D

 35 38  0  0  0  0  0  0  0  0999 V2000
   -9.1300   -2.9100    0.4520 O   0  0  0  0  0  0  0  0  0  0  0  0
  -10.2490   -2.6420    0.1800 C   0  0  0  0  0  0  0  0  0  0  0  0
  -11.3800   -3.0650    1.0860 C   0  0  0  0  0  0  0  0  0  0  0  0
  -11.2000   -3.8390    2.3880 C   0  0  0  0  0  0  0  0  0  0  0  0
  -10.9900   -5.0690    2.3420 N   0  0  0  0  0  0  0  0  0  0  0  0
  -12.7310   -2.7290    0.7330 N   0  0  0  0  0  0  0  0  0  0  0  0
  -12.9960   -1.9940   -0.4510 N   0  0  0  0  0  0  0  0  0  0  0  0
  -14.3580   -1.6940   -0.7530 C   0  0  0  0  0  0  0  0  0  0  0  0
  -15.0390   -0.7180   -0.0560 C   0  0  0  0  0  0  0  0  0  0  0  0
  -16.3510   -0.4690   -0.3980 C   0  0  0  0  0  0  0  0  0  0  0  0
  -16.9430   -1.2030   -1.4080 C   0  0  0  0  0  0  0  0  0  0  0  0
  -18.3840   -0.9560   -1.8060 C   0  0  0  0  0  0  0  0  0  0  0  0
  -16.2510   -2.1690   -2.1000 C   0  0  0  0  0  0  0  0  0  0  0  0
  -14.9490   -2.4160   -1.7590 C   0  0  0  0  0  0  0  0  0  0  0  0
  -11.9050   -1.5730   -1.3540 C   0  0  0  0  0  0  0  0  0  0  0  0
  -10.5280   -1.9050   -1.0240 N   0  0  0  0  0  0  0  0  0  0  0  0
   -9.4550   -1.4720   -1.9190 C   0  0  0  0  0  0  0  0  0  0  0  0
   -9.2820   -2.3940   -3.1270 C   0  0  0  0  0  0  0  0  0  0  0  0
   -7.8170   -2.5500   -3.5360 C   0  0  0  0  0  0  0  0  0  0  0  0
   -6.9720   -3.3210   -2.7550 C   0  0  0  0  0  0  0  0  0  0  0  0
   -5.6390   -3.4770   -3.1110 C   0  0  0  0  0  0  0  0  0  0  0  0
   -5.1940   -2.8390   -4.2640 C   0  0  0  0  0  0  0  0  0  0  0  0
   -6.0850   -2.0780   -5.0070 C   0  0  0  0  0  0  0  0  0  0  0  0
   -7.3470   -1.9600   -4.6270 N   0  0  0  0  0  0  0  0  0  0  0  0
  -12.1450   -0.9640   -2.3390 O   0  0  0  0  0  0  0  0  0  0  0  0
  -18.7610   -1.8760   -2.7390 F   0  0  0  0  0  0  0  0  0  0  0  0
  -18.4550    0.3250   -2.2750 F   0  0  0  0  0  0  0  0  0  0  0  0
  -19.1950   -1.1300   -0.7370 F   0  0  0  0  0  0  0  0  0  0  0  0
   -9.7920   -3.7475   -2.8656 C   0  0  0  0  0  0  0  0  0  0  0  0
  -10.0717   -1.8029   -4.3549 C   0  0  0  0  0  0  0  0  0  0  0  0
  -10.0419   -4.6597   -4.1091 C   0  0  0  0  0  0  0  0  0  0  0  0
  -10.3271   -4.0944   -5.2068 O   0  0  0  0  0  0  0  0  0  0  0  0
  -10.6195   -2.6984   -5.2717 C   0  0  0  0  0  0  0  0  0  0  0  0
  -10.7408   -2.1947   -6.6648 C   0  0  0  0  0  0  0  0  0  0  0  0
   -9.6943   -2.1057   -7.5405 C   0  0  0  0  0  0  0  0  0  0  0  0
  1  2  2  0
  2  3  1  0
  2 16  1  0
  3  4  1  0
  3  6  2  0
  4  5  1  0
  6  7  1  0
  7 15  1  0
  7  8  1  0
 11 12  1  0
 12 28  1  0
 12 27  1  0
 12 26  1  0
 15 16  1  0
 15 25  2  0
 16 17  1  0
 17 18  1  0
 18 19  1  0
 18 29  1  0
 18 30  1  0
 29 31  2  0
 31 32  1  0
 30 33  1  0
 32 33  1  0
 33 34  1  0
 34 35  1  0
  8  9  2  0
  9 10  1  0
 10 11  2  0
 11 13  1  0
 13 14  2  0
 14  8  1  0
 19 20  2  0
 20 21  1  0
 21 22  2  0
 22 23  1  0
 23 24  2  0
 24 19  1  0
M  END

$$$$
No_291-gen_results_new/Mpro_new_generate_500/2024-01-19-21-58-56/
     RDKit          3D

 35 38  0  0  0  0  0  0  0  0999 V2000
   -9.1300   -2.9100    0.4520 O   0  0  0  0  0  0  0  0  0  0  0  0
  -10.2490   -2.6420    0.1800 C   0  0  0  0  0  0  0  0  0  0  0  0
  -11.3800   -3.0650    1.0860 C   0  0  0  0  0  0  0  0  0  0  0  0
  -11.2000   -3.8390    2.3880 C   0  0  0  0  0  0  0  0  0  0  0  0
  -10.9900   -5.0690    2.3420 N   0  0  0  0  0  0  0  0  0  0  0  0
  -12.7310   -2.7290    0.7330 N   0  0  0  0  0  0  0  0  0  0  0  0
  -12.9960   -1.9940   -0.4510 N   0  0  0  0  0  0  0  0  0  0  0  0
  -14.3580   -1.6940   -0.7530 C   0  0  0  0  0  0  0  0  0  0  0  0
  -15.0390   -0.7180   -0.0560 C   0  0  0  0  0  0  0  0  0  0  0  0
  -16.3510   -0.4690   -0.3980 C   0  0  0  0  0  0  0  0  0  0  0  0
  -16.9430   -1.2030   -1.4080 C   0  0  0  0  0  0  0  0  0  0  0  0
  -18.3840   -0.9560   -1.8060 C   0  0  0  0  0  0  0  0  0  0  0  0
  -16.2510   -2.1690   -2.1000 C   0  0  0  0  0  0  0  0  0  0  0  0
  -14.9490   -2.4160   -1.7590 C   0  0  0  0  0  0  0  0  0  0  0  0
  -11.9050   -1.5730   -1.3540 C   0  0  0  0  0  0  0  0  0  0  0  0
  -10.5280   -1.9050   -1.0240 N   0  0  0  0  0  0  0  0  0  0  0  0
   -9.4550   -1.4720   -1.9190 C   0  0  0  0  0  0  0  0  0  0  0  0
   -9.2820   -2.3940   -3.1270 C   0  0  0  0  0  0  0  0  0  0  0  0
   -7.8170   -2.5500   -3.5360 C   0  0  0  0  0  0  0  0  0  0  0  0
   -6.9720   -3.3210   -2.7550 C   0  0  0  0  0  0  0  0  0  0  0  0
   -5.6390   -3.4770   -3.1110 C   0  0  0  0  0  0  0  0  0  0  0  0
   -5.1940   -2.8390   -4.2640 C   0  0  0  0  0  0  0  0  0  0  0  0
   -6.0850   -2.0780   -5.0070 C   0  0  0  0  0  0  0  0  0  0  0  0
   -7.3470   -1.9600   -4.6270 N   0  0  0  0  0  0  0  0  0  0  0  0
  -12.1450   -0.9640   -2.3390 O   0  0  0  0  0  0  0  0  0  0  0  0
  -18.7610   -1.8760   -2.7390 F   0  0  0  0  0  0  0  0  0  0  0  0
  -18.4550    0.3250   -2.2750 F   0  0  0  0  0  0  0  0  0  0  0  0
  -19.1950   -1.1300   -0.7370 F   0  0  0  0  0  0  0  0  0  0  0  0
   -9.7920   -3.7475   -2.8656 C   0  0  0  0  0  0  0  0  0  0  0  0
   -9.9778   -1.5944   -4.2803 C   0  0  0  0  0  0  0  0  0  0  0  0
   -9.9974   -4.6360   -4.1639 C   0  0  0  0  0  0  0  0  0  0  0  0
  -11.3227   -3.7636   -2.4518 C   0  0  0  0  0  0  0  0  0  0  0  0
  -11.6089   -5.1884   -2.0167 C   0  0  0  0  0  0  0  0  0  0  0  0
  -12.3837   -4.2196   -3.6755 C   0  0  0  0  0  0  0  0  0  0  0  0
  -11.2997   -5.0377   -4.4882 C   0  0  0  0  0  0  0  0  0  0  0  0
  1  2  2  0
  2  3  1  0
  2 16  1  0
  3  4  1  0
  3  6  2  0
  4  5  1  0
  6  7  1  0
  7 15  1  0
  7  8  1  0
 11 12  1  0
 12 28  1  0
 12 27  1  0
 12 26  1  0
 15 16  1  0
 15 25  2  0
 16 17  1  0
 17 18  1  0
 18 19  1  0
 18 29  1  0
 18 30  1  0
 29 31  1  0
 29 32  1  0
 32 33  1  0
 32 34  1  0
 31 35  1  0
 34 35  1  0
  8  9  2  0
  9 10  1  0
 10 11  2  0
 11 13  1  0
 13 14  2  0
 14  8  1  0
 19 20  2  0
 20 21  1  0
 21 22  2  0
 22 23  1  0
 23 24  2  0
 24 19  1  0
M  END

$$$$
No_292-gen_results_new/Mpro_new_generate_500/2024-01-19-21-58-56/
     RDKit          3D

 32 34  0  0  0  0  0  0  0  0999 V2000
   -9.1300   -2.9100    0.4520 O   0  0  0  0  0  0  0  0  0  0  0  0
  -10.2490   -2.6420    0.1800 C   0  0  0  0  0  0  0  0  0  0  0  0
  -11.3800   -3.0650    1.0860 C   0  0  0  0  0  0  0  0  0  0  0  0
  -11.2000   -3.8390    2.3880 C   0  0  0  0  0  0  0  0  0  0  0  0
  -10.9900   -5.0690    2.3420 N   0  0  0  0  0  0  0  0  0  0  0  0
  -12.7310   -2.7290    0.7330 N   0  0  0  0  0  0  0  0  0  0  0  0
  -12.9960   -1.9940   -0.4510 N   0  0  0  0  0  0  0  0  0  0  0  0
  -14.3580   -1.6940   -0.7530 C   0  0  0  0  0  0  0  0  0  0  0  0
  -15.0390   -0.7180   -0.0560 C   0  0  0  0  0  0  0  0  0  0  0  0
  -16.3510   -0.4690   -0.3980 C   0  0  0  0  0  0  0  0  0  0  0  0
  -16.9430   -1.2030   -1.4080 C   0  0  0  0  0  0  0  0  0  0  0  0
  -18.3840   -0.9560   -1.8060 C   0  0  0  0  0  0  0  0  0  0  0  0
  -16.2510   -2.1690   -2.1000 C   0  0  0  0  0  0  0  0  0  0  0  0
  -14.9490   -2.4160   -1.7590 C   0  0  0  0  0  0  0  0  0  0  0  0
  -11.9050   -1.5730   -1.3540 C   0  0  0  0  0  0  0  0  0  0  0  0
  -10.5280   -1.9050   -1.0240 N   0  0  0  0  0  0  0  0  0  0  0  0
   -9.4550   -1.4720   -1.9190 C   0  0  0  0  0  0  0  0  0  0  0  0
   -9.2820   -2.3940   -3.1270 C   0  0  0  0  0  0  0  0  0  0  0  0
   -7.8170   -2.5500   -3.5360 C   0  0  0  0  0  0  0  0  0  0  0  0
   -6.9720   -3.3210   -2.7550 C   0  0  0  0  0  0  0  0  0  0  0  0
   -5.6390   -3.4770   -3.1110 C   0  0  0  0  0  0  0  0  0  0  0  0
   -5.1940   -2.8390   -4.2640 C   0  0  0  0  0  0  0  0  0  0  0  0
   -6.0850   -2.0780   -5.0070 C   0  0  0  0  0  0  0  0  0  0  0  0
   -7.3470   -1.9600   -4.6270 N   0  0  0  0  0  0  0  0  0  0  0  0
  -12.1450   -0.9640   -2.3390 O   0  0  0  0  0  0  0  0  0  0  0  0
  -18.7610   -1.8760   -2.7390 F   0  0  0  0  0  0  0  0  0  0  0  0
  -18.4550    0.3250   -2.2750 F   0  0  0  0  0  0  0  0  0  0  0  0
  -19.1950   -1.1300   -0.7370 F   0  0  0  0  0  0  0  0  0  0  0  0
  -10.1467   -3.0903   -3.8357 C   0  0  0  0  0  0  0  0  0  0  0  0
  -10.1681   -2.5855   -3.6007 C   0  0  0  0  0  0  0  0  0  0  0  0
  -10.4499   -1.5957   -4.9129 C   0  0  0  0  0  0  0  0  0  0  0  0
  -11.5357   -2.7535   -3.0630 O   0  0  0  0  0  0  0  0  0  0  0  0
  1  2  2  0
  2  3  1  0
  2 16  1  0
  3  4  1  0
  3  6  2  0
  4  5  1  0
  6  7  1  0
  7 15  1  0
  7  8  1  0
 11 12  1  0
 12 28  1  0
 12 27  1  0
 12 26  1  0
 15 16  1  0
 15 25  2  0
 16 17  1  0
 17 18  1  0
 18 19  1  0
 18 29  1  0
 29 30  1  0
 30 31  1  0
 30 32  2  0
  8  9  2  0
  9 10  1  0
 10 11  2  0
 11 13  1  0
 13 14  2  0
 14  8  1  0
 19 20  2  0
 20 21  1  0
 21 22  2  0
 22 23  1  0
 23 24  2  0
 24 19  1  0
M  END

$$$$
No_293-gen_results_new/Mpro_new_generate_500/2024-01-19-21-58-56/
     RDKit          3D

 34 37  0  0  0  0  0  0  0  0999 V2000
   -9.1300   -2.9100    0.4520 O   0  0  0  0  0  0  0  0  0  0  0  0
  -10.2490   -2.6420    0.1800 C   0  0  0  0  0  0  0  0  0  0  0  0
  -11.3800   -3.0650    1.0860 C   0  0  0  0  0  0  0  0  0  0  0  0
  -11.2000   -3.8390    2.3880 C   0  0  0  0  0  0  0  0  0  0  0  0
  -10.9900   -5.0690    2.3420 N   0  0  0  0  0  0  0  0  0  0  0  0
  -12.7310   -2.7290    0.7330 N   0  0  0  0  0  0  0  0  0  0  0  0
  -12.9960   -1.9940   -0.4510 N   0  0  0  0  0  0  0  0  0  0  0  0
  -14.3580   -1.6940   -0.7530 C   0  0  0  0  0  0  0  0  0  0  0  0
  -15.0390   -0.7180   -0.0560 C   0  0  0  0  0  0  0  0  0  0  0  0
  -16.3510   -0.4690   -0.3980 C   0  0  0  0  0  0  0  0  0  0  0  0
  -16.9430   -1.2030   -1.4080 C   0  0  0  0  0  0  0  0  0  0  0  0
  -18.3840   -0.9560   -1.8060 C   0  0  0  0  0  0  0  0  0  0  0  0
  -16.2510   -2.1690   -2.1000 C   0  0  0  0  0  0  0  0  0  0  0  0
  -14.9490   -2.4160   -1.7590 C   0  0  0  0  0  0  0  0  0  0  0  0
  -11.9050   -1.5730   -1.3540 C   0  0  0  0  0  0  0  0  0  0  0  0
  -10.5280   -1.9050   -1.0240 N   0  0  0  0  0  0  0  0  0  0  0  0
   -9.4550   -1.4720   -1.9190 C   0  0  0  0  0  0  0  0  0  0  0  0
   -9.2820   -2.3940   -3.1270 C   0  0  0  0  0  0  0  0  0  0  0  0
   -7.8170   -2.5500   -3.5360 C   0  0  0  0  0  0  0  0  0  0  0  0
   -6.9720   -3.3210   -2.7550 C   0  0  0  0  0  0  0  0  0  0  0  0
   -5.6390   -3.4770   -3.1110 C   0  0  0  0  0  0  0  0  0  0  0  0
   -5.1940   -2.8390   -4.2640 C   0  0  0  0  0  0  0  0  0  0  0  0
   -6.0850   -2.0780   -5.0070 C   0  0  0  0  0  0  0  0  0  0  0  0
   -7.3470   -1.9600   -4.6270 N   0  0  0  0  0  0  0  0  0  0  0  0
  -12.1450   -0.9640   -2.3390 O   0  0  0  0  0  0  0  0  0  0  0  0
  -18.7610   -1.8760   -2.7390 F   0  0  0  0  0  0  0  0  0  0  0  0
  -18.4550    0.3250   -2.2750 F   0  0  0  0  0  0  0  0  0  0  0  0
  -19.1950   -1.1300   -0.7370 F   0  0  0  0  0  0  0  0  0  0  0  0
  -10.0453   -2.0069   -4.3181 C   0  0  0  0  0  0  0  0  0  0  0  0
   -9.8476   -3.8948   -2.8015 C   0  0  0  0  0  0  0  0  0  0  0  0
  -10.0302   -4.6229   -3.7804 O   0  0  0  0  0  0  0  0  0  0  0  0
   -8.9563   -4.7081   -1.8635 C   0  0  0  0  0  0  0  0  0  0  0  0
   -7.4581   -4.2682   -1.9919 C   0  0  0  0  0  0  0  0  0  0  0  0
   -6.7598   -5.1039   -1.2223 F   0  0  0  0  0  0  0  0  0  0  0  0
  1  2  2  0
  2  3  1  0
  2 16  1  0
  3  4  1  0
  3  6  2  0
  4  5  1  0
  6  7  1  0
  7 15  1  0
  7  8  1  0
 11 12  1  0
 12 28  1  0
 12 27  1  0
 12 26  1  0
 15 16  1  0
 15 25  2  0
 16 17  1  0
 17 18  1  0
 18 19  1  0
 18 29  1  0
 18 30  1  0
 30 31  2  0
 30 32  1  0
 20 33  1  0
 33 34  1  0
 33 32  1  0
  8  9  2  0
  9 10  1  0
 10 11  2  0
 11 13  1  0
 13 14  2  0
 14  8  1  0
 19 24  1  0
 24 23  2  0
 23 22  1  0
 22 21  2  0
 21 20  1  0
 20 19  2  0
M  END

$$$$
No_294-gen_results_new/Mpro_new_generate_500/2024-01-19-21-58-56/
     RDKit          3D

 32 34  0  0  0  0  0  0  0  0999 V2000
   -9.1300   -2.9100    0.4520 O   0  0  0  0  0  0  0  0  0  0  0  0
  -10.2490   -2.6420    0.1800 C   0  0  0  0  0  0  0  0  0  0  0  0
  -11.3800   -3.0650    1.0860 C   0  0  0  0  0  0  0  0  0  0  0  0
  -11.2000   -3.8390    2.3880 C   0  0  0  0  0  0  0  0  0  0  0  0
  -10.9900   -5.0690    2.3420 N   0  0  0  0  0  0  0  0  0  0  0  0
  -12.7310   -2.7290    0.7330 N   0  0  0  0  0  0  0  0  0  0  0  0
  -12.9960   -1.9940   -0.4510 N   0  0  0  0  0  0  0  0  0  0  0  0
  -14.3580   -1.6940   -0.7530 C   0  0  0  0  0  0  0  0  0  0  0  0
  -15.0390   -0.7180   -0.0560 C   0  0  0  0  0  0  0  0  0  0  0  0
  -16.3510   -0.4690   -0.3980 C   0  0  0  0  0  0  0  0  0  0  0  0
  -16.9430   -1.2030   -1.4080 C   0  0  0  0  0  0  0  0  0  0  0  0
  -18.3840   -0.9560   -1.8060 C   0  0  0  0  0  0  0  0  0  0  0  0
  -16.2510   -2.1690   -2.1000 C   0  0  0  0  0  0  0  0  0  0  0  0
  -14.9490   -2.4160   -1.7590 C   0  0  0  0  0  0  0  0  0  0  0  0
  -11.9050   -1.5730   -1.3540 C   0  0  0  0  0  0  0  0  0  0  0  0
  -10.5280   -1.9050   -1.0240 N   0  0  0  0  0  0  0  0  0  0  0  0
   -9.4550   -1.4720   -1.9190 C   0  0  0  0  0  0  0  0  0  0  0  0
   -9.2820   -2.3940   -3.1270 C   0  0  0  0  0  0  0  0  0  0  0  0
   -7.8170   -2.5500   -3.5360 C   0  0  0  0  0  0  0  0  0  0  0  0
   -6.9720   -3.3210   -2.7550 C   0  0  0  0  0  0  0  0  0  0  0  0
   -5.6390   -3.4770   -3.1110 C   0  0  0  0  0  0  0  0  0  0  0  0
   -5.1940   -2.8390   -4.2640 C   0  0  0  0  0  0  0  0  0  0  0  0
   -6.0850   -2.0780   -5.0070 C   0  0  0  0  0  0  0  0  0  0  0  0
   -7.3470   -1.9600   -4.6270 N   0  0  0  0  0  0  0  0  0  0  0  0
  -12.1450   -0.9640   -2.3390 O   0  0  0  0  0  0  0  0  0  0  0  0
  -18.7610   -1.8760   -2.7390 F   0  0  0  0  0  0  0  0  0  0  0  0
  -18.4550    0.3250   -2.2750 F   0  0  0  0  0  0  0  0  0  0  0  0
  -19.1950   -1.1300   -0.7370 F   0  0  0  0  0  0  0  0  0  0  0  0
   -9.7920   -3.7475   -2.8656 C   0  0  0  0  0  0  0  0  0  0  0  0
  -10.2108   -1.7522   -4.5716 S   0  0  0  0  0  0  0  0  0  0  0  0
  -11.2851   -3.0960   -5.0458 C   0  0  0  0  0  0  0  0  0  0  0  0
  -10.1784   -0.2437   -5.4514 S   0  0  0  0  0  0  0  0  0  0  0  0
  1  2  2  0
  2  3  1  0
  2 16  1  0
  3  4  1  0
  3  6  2  0
  4  5  1  0
  6  7  1  0
  7 15  1  0
  7  8  1  0
 11 12  1  0
 12 28  1  0
 12 27  1  0
 12 26  1  0
 15 16  1  0
 15 25  2  0
 16 17  1  0
 17 18  1  0
 18 19  1  0
 18 29  1  0
 18 30  1  0
 30 31  1  0
 30 32  2  0
  8  9  2  0
  9 10  1  0
 10 11  2  0
 11 13  1  0
 13 14  2  0
 14  8  1  0
 19 20  2  0
 20 21  1  0
 21 22  2  0
 22 23  1  0
 23 24  2  0
 24 19  1  0
M  END

$$$$
No_295-gen_results_new/Mpro_new_generate_500/2024-01-19-21-58-56/
     RDKit          3D

 35 37  0  0  0  0  0  0  0  0999 V2000
   -9.1300   -2.9100    0.4520 O   0  0  0  0  0  0  0  0  0  0  0  0
  -10.2490   -2.6420    0.1800 C   0  0  0  0  0  0  0  0  0  0  0  0
  -11.3800   -3.0650    1.0860 C   0  0  0  0  0  0  0  0  0  0  0  0
  -11.2000   -3.8390    2.3880 C   0  0  0  0  0  0  0  0  0  0  0  0
  -10.9900   -5.0690    2.3420 N   0  0  0  0  0  0  0  0  0  0  0  0
  -12.7310   -2.7290    0.7330 N   0  0  0  0  0  0  0  0  0  0  0  0
  -12.9960   -1.9940   -0.4510 N   0  0  0  0  0  0  0  0  0  0  0  0
  -14.3580   -1.6940   -0.7530 C   0  0  0  0  0  0  0  0  0  0  0  0
  -15.0390   -0.7180   -0.0560 C   0  0  0  0  0  0  0  0  0  0  0  0
  -16.3510   -0.4690   -0.3980 C   0  0  0  0  0  0  0  0  0  0  0  0
  -16.9430   -1.2030   -1.4080 C   0  0  0  0  0  0  0  0  0  0  0  0
  -18.3840   -0.9560   -1.8060 C   0  0  0  0  0  0  0  0  0  0  0  0
  -16.2510   -2.1690   -2.1000 C   0  0  0  0  0  0  0  0  0  0  0  0
  -14.9490   -2.4160   -1.7590 C   0  0  0  0  0  0  0  0  0  0  0  0
  -11.9050   -1.5730   -1.3540 C   0  0  0  0  0  0  0  0  0  0  0  0
  -10.5280   -1.9050   -1.0240 N   0  0  0  0  0  0  0  0  0  0  0  0
   -9.4550   -1.4720   -1.9190 C   0  0  0  0  0  0  0  0  0  0  0  0
   -9.2820   -2.3940   -3.1270 C   0  0  0  0  0  0  0  0  0  0  0  0
   -7.8170   -2.5500   -3.5360 C   0  0  0  0  0  0  0  0  0  0  0  0
   -6.9720   -3.3210   -2.7550 C   0  0  0  0  0  0  0  0  0  0  0  0
   -5.6390   -3.4770   -3.1110 C   0  0  0  0  0  0  0  0  0  0  0  0
   -5.1940   -2.8390   -4.2640 C   0  0  0  0  0  0  0  0  0  0  0  0
   -6.0850   -2.0780   -5.0070 C   0  0  0  0  0  0  0  0  0  0  0  0
   -7.3470   -1.9600   -4.6270 N   0  0  0  0  0  0  0  0  0  0  0  0
  -12.1450   -0.9640   -2.3390 O   0  0  0  0  0  0  0  0  0  0  0  0
  -18.7610   -1.8760   -2.7390 F   0  0  0  0  0  0  0  0  0  0  0  0
  -18.4550    0.3250   -2.2750 F   0  0  0  0  0  0  0  0  0  0  0  0
  -19.1950   -1.1300   -0.7370 F   0  0  0  0  0  0  0  0  0  0  0  0
  -10.0453   -2.0069   -4.3181 C   0  0  0  0  0  0  0  0  0  0  0  0
   -9.8476   -3.8948   -2.8015 C   0  0  0  0  0  0  0  0  0  0  0  0
  -10.1714   -4.7331   -3.9309 C   0  0  0  0  0  0  0  0  0  0  0  0
  -10.1186   -5.9859   -3.4612 F   0  0  0  0  0  0  0  0  0  0  0  0
  -10.3346   -4.5531   -5.1975 C   0  0  0  0  0  0  0  0  0  0  0  0
  -10.9375   -5.4533   -6.2491 C   0  0  0  0  0  0  0  0  0  0  0  0
  -12.0569   -5.6872   -5.7431 F   0  0  0  0  0  0  0  0  0  0  0  0
  1  2  2  0
  2  3  1  0
  2 16  1  0
  3  4  1  0
  3  6  2  0
  4  5  1  0
  6  7  1  0
  7 15  1  0
  7  8  1  0
 11 12  1  0
 12 28  1  0
 12 27  1  0
 12 26  1  0
 15 16  1  0
 15 25  2  0
 16 17  1  0
 17 18  1  0
 18 19  1  0
 18 29  1  0
 18 30  1  0
 30 31  2  3
 31 32  1  0
 31 33  1  0
 33 34  1  0
 34 35  1  0
  8  9  2  0
  9 10  1  0
 10 11  2  0
 11 13  1  0
 13 14  2  0
 14  8  1  0
 19 20  2  0
 20 21  1  0
 21 22  2  0
 22 23  1  0
 23 24  2  0
 24 19  1  0
M  END

$$$$
No_296-gen_results_new/Mpro_new_generate_500/2024-01-19-21-58-56/
     RDKit          3D

 35 38  0  0  0  0  0  0  0  0999 V2000
   -9.1300   -2.9100    0.4520 O   0  0  0  0  0  0  0  0  0  0  0  0
  -10.2490   -2.6420    0.1800 C   0  0  0  0  0  0  0  0  0  0  0  0
  -11.3800   -3.0650    1.0860 C   0  0  0  0  0  0  0  0  0  0  0  0
  -11.2000   -3.8390    2.3880 C   0  0  0  0  0  0  0  0  0  0  0  0
  -10.9900   -5.0690    2.3420 N   0  0  0  0  0  0  0  0  0  0  0  0
  -12.7310   -2.7290    0.7330 N   0  0  0  0  0  0  0  0  0  0  0  0
  -12.9960   -1.9940   -0.4510 N   0  0  0  0  0  0  0  0  0  0  0  0
  -14.3580   -1.6940   -0.7530 C   0  0  0  0  0  0  0  0  0  0  0  0
  -15.0390   -0.7180   -0.0560 C   0  0  0  0  0  0  0  0  0  0  0  0
  -16.3510   -0.4690   -0.3980 C   0  0  0  0  0  0  0  0  0  0  0  0
  -16.9430   -1.2030   -1.4080 C   0  0  0  0  0  0  0  0  0  0  0  0
  -18.3840   -0.9560   -1.8060 C   0  0  0  0  0  0  0  0  0  0  0  0
  -16.2510   -2.1690   -2.1000 C   0  0  0  0  0  0  0  0  0  0  0  0
  -14.9490   -2.4160   -1.7590 C   0  0  0  0  0  0  0  0  0  0  0  0
  -11.9050   -1.5730   -1.3540 C   0  0  0  0  0  0  0  0  0  0  0  0
  -10.5280   -1.9050   -1.0240 N   0  0  0  0  0  0  0  0  0  0  0  0
   -9.4550   -1.4720   -1.9190 C   0  0  0  0  0  0  0  0  0  0  0  0
   -9.2820   -2.3940   -3.1270 C   0  0  0  0  0  0  0  0  0  0  0  0
   -7.8170   -2.5500   -3.5360 C   0  0  0  0  0  0  0  0  0  0  0  0
   -6.9720   -3.3210   -2.7550 C   0  0  0  0  0  0  0  0  0  0  0  0
   -5.6390   -3.4770   -3.1110 C   0  0  0  0  0  0  0  0  0  0  0  0
   -5.1940   -2.8390   -4.2640 C   0  0  0  0  0  0  0  0  0  0  0  0
   -6.0850   -2.0780   -5.0070 C   0  0  0  0  0  0  0  0  0  0  0  0
   -7.3470   -1.9600   -4.6270 N   0  0  0  0  0  0  0  0  0  0  0  0
  -12.1450   -0.9640   -2.3390 O   0  0  0  0  0  0  0  0  0  0  0  0
  -18.7610   -1.8760   -2.7390 F   0  0  0  0  0  0  0  0  0  0  0  0
  -18.4550    0.3250   -2.2750 F   0  0  0  0  0  0  0  0  0  0  0  0
  -19.1950   -1.1300   -0.7370 F   0  0  0  0  0  0  0  0  0  0  0  0
  -10.0453   -2.0069   -4.3181 C   0  0  0  0  0  0  0  0  0  0  0  0
   -9.8476   -3.8948   -2.8015 C   0  0  0  0  0  0  0  0  0  0  0  0
  -10.1714   -4.7331   -3.9309 C   0  0  0  0  0  0  0  0  0  0  0  0
  -10.2051   -6.2008   -3.5771 C   0  0  0  0  0  0  0  0  0  0  0  0
   -9.7936   -6.4873   -2.2578 C   0  0  0  0  0  0  0  0  0  0  0  0
   -9.4424   -5.6683   -1.5002 O   0  0  0  0  0  0  0  0  0  0  0  0
   -9.3020   -4.4126   -1.6603 C   0  0  0  0  0  0  0  0  0  0  0  0
  1  2  2  0
  2  3  1  0
  2 16  1  0
  3  4  1  0
  3  6  2  0
  4  5  1  0
  6  7  1  0
  7 15  1  0
  7  8  1  0
 11 12  1  0
 12 28  1  0
 12 27  1  0
 12 26  1  0
 15 16  1  0
 15 25  2  0
 16 17  1  0
 17 18  1  0
 18 19  1  0
 18 29  1  0
 18 30  1  0
 30 31  2  0
 31 32  1  0
 32 33  1  0
 33 34  1  0
 30 35  1  0
 34 35  1  0
  8  9  2  0
  9 10  1  0
 10 11  2  0
 11 13  1  0
 13 14  2  0
 14  8  1  0
 19 20  2  0
 20 21  1  0
 21 22  2  0
 22 23  1  0
 23 24  2  0
 24 19  1  0
M  END

$$$$
No_297-gen_results_new/Mpro_new_generate_500/2024-01-19-21-58-56/
     RDKit          3D

 34 36  0  0  0  0  0  0  0  0999 V2000
   -9.1300   -2.9100    0.4520 O   0  0  0  0  0  0  0  0  0  0  0  0
  -10.2490   -2.6420    0.1800 C   0  0  0  0  0  0  0  0  0  0  0  0
  -11.3800   -3.0650    1.0860 C   0  0  0  0  0  0  0  0  0  0  0  0
  -11.2000   -3.8390    2.3880 C   0  0  0  0  0  0  0  0  0  0  0  0
  -10.9900   -5.0690    2.3420 N   0  0  0  0  0  0  0  0  0  0  0  0
  -12.7310   -2.7290    0.7330 N   0  0  0  0  0  0  0  0  0  0  0  0
  -12.9960   -1.9940   -0.4510 N   0  0  0  0  0  0  0  0  0  0  0  0
  -14.3580   -1.6940   -0.7530 C   0  0  0  0  0  0  0  0  0  0  0  0
  -15.0390   -0.7180   -0.0560 C   0  0  0  0  0  0  0  0  0  0  0  0
  -16.3510   -0.4690   -0.3980 C   0  0  0  0  0  0  0  0  0  0  0  0
  -16.9430   -1.2030   -1.4080 C   0  0  0  0  0  0  0  0  0  0  0  0
  -18.3840   -0.9560   -1.8060 C   0  0  0  0  0  0  0  0  0  0  0  0
  -16.2510   -2.1690   -2.1000 C   0  0  0  0  0  0  0  0  0  0  0  0
  -14.9490   -2.4160   -1.7590 C   0  0  0  0  0  0  0  0  0  0  0  0
  -11.9050   -1.5730   -1.3540 C   0  0  0  0  0  0  0  0  0  0  0  0
  -10.5280   -1.9050   -1.0240 N   0  0  0  0  0  0  0  0  0  0  0  0
   -9.4550   -1.4720   -1.9190 C   0  0  0  0  0  0  0  0  0  0  0  0
   -9.2820   -2.3940   -3.1270 C   0  0  0  0  0  0  0  0  0  0  0  0
   -7.8170   -2.5500   -3.5360 C   0  0  0  0  0  0  0  0  0  0  0  0
   -6.9720   -3.3210   -2.7550 C   0  0  0  0  0  0  0  0  0  0  0  0
   -5.6390   -3.4770   -3.1110 C   0  0  0  0  0  0  0  0  0  0  0  0
   -5.1940   -2.8390   -4.2640 C   0  0  0  0  0  0  0  0  0  0  0  0
   -6.0850   -2.0780   -5.0070 C   0  0  0  0  0  0  0  0  0  0  0  0
   -7.3470   -1.9600   -4.6270 N   0  0  0  0  0  0  0  0  0  0  0  0
  -12.1450   -0.9640   -2.3390 O   0  0  0  0  0  0  0  0  0  0  0  0
  -18.7610   -1.8760   -2.7390 F   0  0  0  0  0  0  0  0  0  0  0  0
  -18.4550    0.3250   -2.2750 F   0  0  0  0  0  0  0  0  0  0  0  0
  -19.1950   -1.1300   -0.7370 F   0  0  0  0  0  0  0  0  0  0  0  0
   -9.7920   -3.7475   -2.8656 C   0  0  0  0  0  0  0  0  0  0  0  0
  -10.1387   -2.0206   -4.2903 C   0  0  0  0  0  0  0  0  0  0  0  0
   -9.3597   -4.3330   -1.7930 O   0  0  0  0  0  0  0  0  0  0  0  0
  -10.7113   -4.2684   -3.1297 O   0  0  0  0  0  0  0  0  0  0  0  0
  -10.4777   -5.0762   -4.0338 C   0  0  0  0  0  0  0  0  0  0  0  0
  -11.7758   -5.1249   -4.6534 C   0  0  0  0  0  0  0  0  0  0  0  0
  1  2  2  0
  2  3  1  0
  2 16  1  0
  3  4  1  0
  3  6  2  0
  4  5  1  0
  6  7  1  0
  7 15  1  0
  7  8  1  0
 11 12  1  0
 12 28  1  0
 12 27  1  0
 12 26  1  0
 15 16  1  0
 15 25  2  0
 16 17  1  0
 17 18  1  0
 18 19  1  0
 18 29  1  0
 18 30  1  0
 29 31  2  0
 29 32  1  0
 32 33  1  0
 33 34  2  0
  8  9  2  0
  9 10  1  0
 10 11  2  0
 11 13  1  0
 13 14  2  0
 14  8  1  0
 19 20  2  0
 20 21  1  0
 21 22  2  0
 22 23  1  0
 23 24  2  0
 24 19  1  0
M  END

$$$$
No_298-gen_results_new/Mpro_new_generate_500/2024-01-19-21-58-56/
     RDKit          3D

 33 36  0  0  0  0  0  0  0  0999 V2000
   -9.1300   -2.9100    0.4520 O   0  0  0  0  0  0  0  0  0  0  0  0
  -10.2490   -2.6420    0.1800 C   0  0  0  0  0  0  0  0  0  0  0  0
  -11.3800   -3.0650    1.0860 C   0  0  0  0  0  0  0  0  0  0  0  0
  -11.2000   -3.8390    2.3880 C   0  0  0  0  0  0  0  0  0  0  0  0
  -10.9900   -5.0690    2.3420 N   0  0  0  0  0  0  0  0  0  0  0  0
  -12.7310   -2.7290    0.7330 N   0  0  0  0  0  0  0  0  0  0  0  0
  -12.9960   -1.9940   -0.4510 N   0  0  0  0  0  0  0  0  0  0  0  0
  -14.3580   -1.6940   -0.7530 C   0  0  0  0  0  0  0  0  0  0  0  0
  -15.0390   -0.7180   -0.0560 C   0  0  0  0  0  0  0  0  0  0  0  0
  -16.3510   -0.4690   -0.3980 C   0  0  0  0  0  0  0  0  0  0  0  0
  -16.9430   -1.2030   -1.4080 C   0  0  0  0  0  0  0  0  0  0  0  0
  -18.3840   -0.9560   -1.8060 C   0  0  0  0  0  0  0  0  0  0  0  0
  -16.2510   -2.1690   -2.1000 C   0  0  0  0  0  0  0  0  0  0  0  0
  -14.9490   -2.4160   -1.7590 C   0  0  0  0  0  0  0  0  0  0  0  0
  -11.9050   -1.5730   -1.3540 C   0  0  0  0  0  0  0  0  0  0  0  0
  -10.5280   -1.9050   -1.0240 N   0  0  0  0  0  0  0  0  0  0  0  0
   -9.4550   -1.4720   -1.9190 C   0  0  0  0  0  0  0  0  0  0  0  0
   -9.2820   -2.3940   -3.1270 C   0  0  0  0  0  0  0  0  0  0  0  0
   -7.8170   -2.5500   -3.5360 C   0  0  0  0  0  0  0  0  0  0  0  0
   -6.9720   -3.3210   -2.7550 C   0  0  0  0  0  0  0  0  0  0  0  0
   -5.6390   -3.4770   -3.1110 C   0  0  0  0  0  0  0  0  0  0  0  0
   -5.1940   -2.8390   -4.2640 C   0  0  0  0  0  0  0  0  0  0  0  0
   -6.0850   -2.0780   -5.0070 C   0  0  0  0  0  0  0  0  0  0  0  0
   -7.3470   -1.9600   -4.6270 N   0  0  0  0  0  0  0  0  0  0  0  0
  -12.1450   -0.9640   -2.3390 O   0  0  0  0  0  0  0  0  0  0  0  0
  -18.7610   -1.8760   -2.7390 F   0  0  0  0  0  0  0  0  0  0  0  0
  -18.4550    0.3250   -2.2750 F   0  0  0  0  0  0  0  0  0  0  0  0
  -19.1950   -1.1300   -0.7370 F   0  0  0  0  0  0  0  0  0  0  0  0
  -10.1467   -3.0903   -3.8357 C   0  0  0  0  0  0  0  0  0  0  0  0
  -10.1681   -2.5855   -3.6007 C   0  0  0  0  0  0  0  0  0  0  0  0
  -11.3090   -2.7206   -3.3293 F   0  0  0  0  0  0  0  0  0  0  0  0
  -10.3500   -1.5904   -4.7916 O   0  0  0  0  0  0  0  0  0  0  0  0
   -9.7429   -2.2000   -2.7653 C   0  0  0  0  0  0  0  0  0  0  0  0
  1  2  2  0
  2  3  1  0
  2 16  1  0
  3  4  1  0
  3  6  2  0
  4  5  1  0
  6  7  1  0
  7 15  1  0
  7  8  1  0
 11 12  1  0
 12 28  1  0
 12 27  1  0
 12 26  1  0
 15 16  1  0
 15 25  2  0
 16 17  1  0
 17 18  1  0
 18 19  1  0
 18 29  1  0
 29 30  1  0
 29 31  1  0
 30 32  2  0
 18 33  1  0
 30 33  1  0
  8  9  2  0
  9 10  1  0
 10 11  2  0
 11 13  1  0
 13 14  2  0
 14  8  1  0
 19 20  2  0
 20 21  1  0
 21 22  2  0
 22 23  1  0
 23 24  2  0
 24 19  1  0
M  END

$$$$
No_299-gen_results_new/Mpro_new_generate_500/2024-01-19-21-58-56/
     RDKit          3D

 32 34  0  0  0  0  0  0  0  0999 V2000
   -9.1300   -2.9100    0.4520 O   0  0  0  0  0  0  0  0  0  0  0  0
  -10.2490   -2.6420    0.1800 C   0  0  0  0  0  0  0  0  0  0  0  0
  -11.3800   -3.0650    1.0860 C   0  0  0  0  0  0  0  0  0  0  0  0
  -11.2000   -3.8390    2.3880 C   0  0  0  0  0  0  0  0  0  0  0  0
  -10.9900   -5.0690    2.3420 N   0  0  0  0  0  0  0  0  0  0  0  0
  -12.7310   -2.7290    0.7330 N   0  0  0  0  0  0  0  0  0  0  0  0
  -12.9960   -1.9940   -0.4510 N   0  0  0  0  0  0  0  0  0  0  0  0
  -14.3580   -1.6940   -0.7530 C   0  0  0  0  0  0  0  0  0  0  0  0
  -15.0390   -0.7180   -0.0560 C   0  0  0  0  0  0  0  0  0  0  0  0
  -16.3510   -0.4690   -0.3980 C   0  0  0  0  0  0  0  0  0  0  0  0
  -16.9430   -1.2030   -1.4080 C   0  0  0  0  0  0  0  0  0  0  0  0
  -18.3840   -0.9560   -1.8060 C   0  0  0  0  0  0  0  0  0  0  0  0
  -16.2510   -2.1690   -2.1000 C   0  0  0  0  0  0  0  0  0  0  0  0
  -14.9490   -2.4160   -1.7590 C   0  0  0  0  0  0  0  0  0  0  0  0
  -11.9050   -1.5730   -1.3540 C   0  0  0  0  0  0  0  0  0  0  0  0
  -10.5280   -1.9050   -1.0240 N   0  0  0  0  0  0  0  0  0  0  0  0
   -9.4550   -1.4720   -1.9190 C   0  0  0  0  0  0  0  0  0  0  0  0
   -9.2820   -2.3940   -3.1270 C   0  0  0  0  0  0  0  0  0  0  0  0
   -7.8170   -2.5500   -3.5360 C   0  0  0  0  0  0  0  0  0  0  0  0
   -6.9720   -3.3210   -2.7550 C   0  0  0  0  0  0  0  0  0  0  0  0
   -5.6390   -3.4770   -3.1110 C   0  0  0  0  0  0  0  0  0  0  0  0
   -5.1940   -2.8390   -4.2640 C   0  0  0  0  0  0  0  0  0  0  0  0
   -6.0850   -2.0780   -5.0070 C   0  0  0  0  0  0  0  0  0  0  0  0
   -7.3470   -1.9600   -4.6270 N   0  0  0  0  0  0  0  0  0  0  0  0
  -12.1450   -0.9640   -2.3390 O   0  0  0  0  0  0  0  0  0  0  0  0
  -18.7610   -1.8760   -2.7390 F   0  0  0  0  0  0  0  0  0  0  0  0
  -18.4550    0.3250   -2.2750 F   0  0  0  0  0  0  0  0  0  0  0  0
  -19.1950   -1.1300   -0.7370 F   0  0  0  0  0  0  0  0  0  0  0  0
  -10.1467   -3.0903   -3.8357 C   0  0  0  0  0  0  0  0  0  0  0  0
  -10.1681   -2.5855   -3.6007 C   0  0  0  0  0  0  0  0  0  0  0  0
  -10.5499   -1.5777   -4.9257 C   0  0  0  0  0  0  0  0  0  0  0  0
  -11.2821   -2.3310   -2.9567 F   0  0  0  0  0  0  0  0  0  0  0  0
  1  2  2  0
  2  3  1  0
  2 16  1  0
  3  4  1  0
  3  6  2  0
  4  5  1  0
  6  7  1  0
  7 15  1  0
  7  8  1  0
 11 12  1  0
 12 28  1  0
 12 27  1  0
 12 26  1  0
 15 16  1  0
 15 25  2  0
 16 17  1  0
 17 18  1  0
 18 19  1  0
 18 29  1  0
 29 30  2  3
 30 31  1  0
 30 32  1  0
  8  9  2  0
  9 10  1  0
 10 11  2  0
 11 13  1  0
 13 14  2  0
 14  8  1  0
 19 20  2  0
 20 21  1  0
 21 22  2  0
 22 23  1  0
 23 24  2  0
 24 19  1  0
M  END

$$$$
No_300-gen_results_new/Mpro_new_generate_500/2024-01-19-21-58-56/
     RDKit          3D

 34 36  0  0  0  0  0  0  0  0999 V2000
   -9.1300   -2.9100    0.4520 O   0  0  0  0  0  0  0  0  0  0  0  0
  -10.2490   -2.6420    0.1800 C   0  0  0  0  0  0  0  0  0  0  0  0
  -11.3800   -3.0650    1.0860 C   0  0  0  0  0  0  0  0  0  0  0  0
  -11.2000   -3.8390    2.3880 C   0  0  0  0  0  0  0  0  0  0  0  0
  -10.9900   -5.0690    2.3420 N   0  0  0  0  0  0  0  0  0  0  0  0
  -12.7310   -2.7290    0.7330 N   0  0  0  0  0  0  0  0  0  0  0  0
  -12.9960   -1.9940   -0.4510 N   0  0  0  0  0  0  0  0  0  0  0  0
  -14.3580   -1.6940   -0.7530 C   0  0  0  0  0  0  0  0  0  0  0  0
  -15.0390   -0.7180   -0.0560 C   0  0  0  0  0  0  0  0  0  0  0  0
  -16.3510   -0.4690   -0.3980 C   0  0  0  0  0  0  0  0  0  0  0  0
  -16.9430   -1.2030   -1.4080 C   0  0  0  0  0  0  0  0  0  0  0  0
  -18.3840   -0.9560   -1.8060 C   0  0  0  0  0  0  0  0  0  0  0  0
  -16.2510   -2.1690   -2.1000 C   0  0  0  0  0  0  0  0  0  0  0  0
  -14.9490   -2.4160   -1.7590 C   0  0  0  0  0  0  0  0  0  0  0  0
  -11.9050   -1.5730   -1.3540 C   0  0  0  0  0  0  0  0  0  0  0  0
  -10.5280   -1.9050   -1.0240 N   0  0  0  0  0  0  0  0  0  0  0  0
   -9.4550   -1.4720   -1.9190 C   0  0  0  0  0  0  0  0  0  0  0  0
   -9.2820   -2.3940   -3.1270 C   0  0  0  0  0  0  0  0  0  0  0  0
   -7.8170   -2.5500   -3.5360 C   0  0  0  0  0  0  0  0  0  0  0  0
   -6.9720   -3.3210   -2.7550 C   0  0  0  0  0  0  0  0  0  0  0  0
   -5.6390   -3.4770   -3.1110 C   0  0  0  0  0  0  0  0  0  0  0  0
   -5.1940   -2.8390   -4.2640 C   0  0  0  0  0  0  0  0  0  0  0  0
   -6.0850   -2.0780   -5.0070 C   0  0  0  0  0  0  0  0  0  0  0  0
   -7.3470   -1.9600   -4.6270 N   0  0  0  0  0  0  0  0  0  0  0  0
  -12.1450   -0.9640   -2.3390 O   0  0  0  0  0  0  0  0  0  0  0  0
  -18.7610   -1.8760   -2.7390 F   0  0  0  0  0  0  0  0  0  0  0  0
  -18.4550    0.3250   -2.2750 F   0  0  0  0  0  0  0  0  0  0  0  0
  -19.1950   -1.1300   -0.7370 F   0  0  0  0  0  0  0  0  0  0  0  0
  -10.0453   -2.0069   -4.3181 C   0  0  0  0  0  0  0  0  0  0  0  0
   -9.8476   -3.8948   -2.8015 C   0  0  0  0  0  0  0  0  0  0  0  0
   -9.3106   -4.5161   -1.8185 O   0  0  0  0  0  0  0  0  0  0  0  0
  -10.5341   -4.9191   -3.9003 S   0  0  0  0  0  0  0  0  0  0  0  0
  -10.8634   -5.5999   -4.7362 C   0  0  0  0  0  0  0  0  0  0  0  0
  -12.2780   -4.9437   -3.3398 O   0  0  0  0  0  0  0  0  0  0  0  0
  1  2  2  0
  2  3  1  0
  2 16  1  0
  3  4  1  0
  3  6  2  0
  4  5  1  0
  6  7  1  0
  7 15  1  0
  7  8  1  0
 11 12  1  0
 12 28  1  0
 12 27  1  0
 12 26  1  0
 15 16  1  0
 15 25  2  0
 16 17  1  0
 17 18  1  0
 18 19  1  0
 18 29  1  0
 18 30  1  0
 30 31  2  0
 30 32  1  0
 32 33  3  0
 32 34  2  0
  8  9  2  0
  9 10  1  0
 10 11  2  0
 11 13  1  0
 13 14  2  0
 14  8  1  0
 19 20  2  0
 20 21  1  0
 21 22  2  0
 22 23  1  0
 23 24  2  0
 24 19  1  0
M  END

$$$$
No_301-gen_results_new/Mpro_new_generate_500/2024-01-19-21-58-56/
     RDKit          3D

 35 37  0  0  0  0  0  0  0  0999 V2000
   -9.1300   -2.9100    0.4520 O   0  0  0  0  0  0  0  0  0  0  0  0
  -10.2490   -2.6420    0.1800 C   0  0  0  0  0  0  0  0  0  0  0  0
  -11.3800   -3.0650    1.0860 C   0  0  0  0  0  0  0  0  0  0  0  0
  -11.2000   -3.8390    2.3880 C   0  0  0  0  0  0  0  0  0  0  0  0
  -10.9900   -5.0690    2.3420 N   0  0  0  0  0  0  0  0  0  0  0  0
  -12.7310   -2.7290    0.7330 N   0  0  0  0  0  0  0  0  0  0  0  0
  -12.9960   -1.9940   -0.4510 N   0  0  0  0  0  0  0  0  0  0  0  0
  -14.3580   -1.6940   -0.7530 C   0  0  0  0  0  0  0  0  0  0  0  0
  -15.0390   -0.7180   -0.0560 C   0  0  0  0  0  0  0  0  0  0  0  0
  -16.3510   -0.4690   -0.3980 C   0  0  0  0  0  0  0  0  0  0  0  0
  -16.9430   -1.2030   -1.4080 C   0  0  0  0  0  0  0  0  0  0  0  0
  -18.3840   -0.9560   -1.8060 C   0  0  0  0  0  0  0  0  0  0  0  0
  -16.2510   -2.1690   -2.1000 C   0  0  0  0  0  0  0  0  0  0  0  0
  -14.9490   -2.4160   -1.7590 C   0  0  0  0  0  0  0  0  0  0  0  0
  -11.9050   -1.5730   -1.3540 C   0  0  0  0  0  0  0  0  0  0  0  0
  -10.5280   -1.9050   -1.0240 N   0  0  0  0  0  0  0  0  0  0  0  0
   -9.4550   -1.4720   -1.9190 C   0  0  0  0  0  0  0  0  0  0  0  0
   -9.2820   -2.3940   -3.1270 C   0  0  0  0  0  0  0  0  0  0  0  0
   -7.8170   -2.5500   -3.5360 C   0  0  0  0  0  0  0  0  0  0  0  0
   -6.9720   -3.3210   -2.7550 C   0  0  0  0  0  0  0  0  0  0  0  0
   -5.6390   -3.4770   -3.1110 C   0  0  0  0  0  0  0  0  0  0  0  0
   -5.1940   -2.8390   -4.2640 C   0  0  0  0  0  0  0  0  0  0  0  0
   -6.0850   -2.0780   -5.0070 C   0  0  0  0  0  0  0  0  0  0  0  0
   -7.3470   -1.9600   -4.6270 N   0  0  0  0  0  0  0  0  0  0  0  0
  -12.1450   -0.9640   -2.3390 O   0  0  0  0  0  0  0  0  0  0  0  0
  -18.7610   -1.8760   -2.7390 F   0  0  0  0  0  0  0  0  0  0  0  0
  -18.4550    0.3250   -2.2750 F   0  0  0  0  0  0  0  0  0  0  0  0
  -19.1950   -1.1300   -0.7370 F   0  0  0  0  0  0  0  0  0  0  0  0
  -10.0453   -2.0069   -4.3181 C   0  0  0  0  0  0  0  0  0  0  0  0
   -9.8476   -3.8948   -2.8015 C   0  0  0  0  0  0  0  0  0  0  0  0
   -9.2607   -4.5187   -1.7349 F   0  0  0  0  0  0  0  0  0  0  0  0
   -9.9873   -4.7937   -3.9256 C   0  0  0  0  0  0  0  0  0  0  0  0
  -11.1559   -3.6802   -2.2626 F   0  0  0  0  0  0  0  0  0  0  0  0
  -10.7562   -5.6662   -4.4205 C   0  0  0  0  0  0  0  0  0  0  0  0
  -11.8909   -5.8363   -3.9571 F   0  0  0  0  0  0  0  0  0  0  0  0
  1  2  2  0
  2  3  1  0
  2 16  1  0
  3  4  1  0
  3  6  2  0
  4  5  1  0
  6  7  1  0
  7 15  1  0
  7  8  1  0
 11 12  1  0
 12 28  1  0
 12 27  1  0
 12 26  1  0
 15 16  1  0
 15 25  2  0
 16 17  1  0
 17 18  1  0
 18 19  1  0
 18 29  1  0
 18 30  1  0
 30 31  1  0
 30 32  1  0
 30 33  1  0
 32 34  2  3
 34 35  1  0
  8  9  2  0
  9 10  1  0
 10 11  2  0
 11 13  1  0
 13 14  2  0
 14  8  1  0
 19 20  2  0
 20 21  1  0
 21 22  2  0
 22 23  1  0
 23 24  2  0
 24 19  1  0
M  END

$$$$
No_302-gen_results_new/Mpro_new_generate_500/2024-01-19-21-58-56/
     RDKit          3D

 32 35  0  0  0  0  0  0  0  0999 V2000
   -9.1300   -2.9100    0.4520 O   0  0  0  0  0  0  0  0  0  0  0  0
  -10.2490   -2.6420    0.1800 C   0  0  0  0  0  0  0  0  0  0  0  0
  -11.3800   -3.0650    1.0860 C   0  0  0  0  0  0  0  0  0  0  0  0
  -11.2000   -3.8390    2.3880 C   0  0  0  0  0  0  0  0  0  0  0  0
  -10.9900   -5.0690    2.3420 N   0  0  0  0  0  0  0  0  0  0  0  0
  -12.7310   -2.7290    0.7330 N   0  0  0  0  0  0  0  0  0  0  0  0
  -12.9960   -1.9940   -0.4510 N   0  0  0  0  0  0  0  0  0  0  0  0
  -14.3580   -1.6940   -0.7530 C   0  0  0  0  0  0  0  0  0  0  0  0
  -15.0390   -0.7180   -0.0560 C   0  0  0  0  0  0  0  0  0  0  0  0
  -16.3510   -0.4690   -0.3980 C   0  0  0  0  0  0  0  0  0  0  0  0
  -16.9430   -1.2030   -1.4080 C   0  0  0  0  0  0  0  0  0  0  0  0
  -18.3840   -0.9560   -1.8060 C   0  0  0  0  0  0  0  0  0  0  0  0
  -16.2510   -2.1690   -2.1000 C   0  0  0  0  0  0  0  0  0  0  0  0
  -14.9490   -2.4160   -1.7590 C   0  0  0  0  0  0  0  0  0  0  0  0
  -11.9050   -1.5730   -1.3540 C   0  0  0  0  0  0  0  0  0  0  0  0
  -10.5280   -1.9050   -1.0240 N   0  0  0  0  0  0  0  0  0  0  0  0
   -9.4550   -1.4720   -1.9190 C   0  0  0  0  0  0  0  0  0  0  0  0
   -9.2820   -2.3940   -3.1270 C   0  0  0  0  0  0  0  0  0  0  0  0
   -7.8170   -2.5500   -3.5360 C   0  0  0  0  0  0  0  0  0  0  0  0
   -6.9720   -3.3210   -2.7550 C   0  0  0  0  0  0  0  0  0  0  0  0
   -5.6390   -3.4770   -3.1110 C   0  0  0  0  0  0  0  0  0  0  0  0
   -5.1940   -2.8390   -4.2640 C   0  0  0  0  0  0  0  0  0  0  0  0
   -6.0850   -2.0780   -5.0070 C   0  0  0  0  0  0  0  0  0  0  0  0
   -7.3470   -1.9600   -4.6270 N   0  0  0  0  0  0  0  0  0  0  0  0
  -12.1450   -0.9640   -2.3390 O   0  0  0  0  0  0  0  0  0  0  0  0
  -18.7610   -1.8760   -2.7390 F   0  0  0  0  0  0  0  0  0  0  0  0
  -18.4550    0.3250   -2.2750 F   0  0  0  0  0  0  0  0  0  0  0  0
  -19.1950   -1.1300   -0.7370 F   0  0  0  0  0  0  0  0  0  0  0  0
   -9.7920   -3.7475   -2.8656 C   0  0  0  0  0  0  0  0  0  0  0  0
  -10.1387   -2.0206   -4.2903 C   0  0  0  0  0  0  0  0  0  0  0  0
  -10.1257   -4.6809   -3.9732 C   0  0  0  0  0  0  0  0  0  0  0  0
  -10.6121   -3.5280   -4.9891 C   0  0  0  0  0  0  0  0  0  0  0  0
  1  2  2  0
  2  3  1  0
  2 16  1  0
  3  4  1  0
  3  6  2  0
  4  5  1  0
  6  7  1  0
  7 15  1  0
  7  8  1  0
 11 12  1  0
 12 28  1  0
 12 27  1  0
 12 26  1  0
 15 16  1  0
 15 25  2  0
 16 17  1  0
 17 18  1  0
 18 19  1  0
 18 29  1  0
 18 30  1  0
 29 31  2  0
 30 32  3  0
 31 32  1  0
  8  9  2  0
  9 10  1  0
 10 11  2  0
 11 13  1  0
 13 14  2  0
 14  8  1  0
 19 20  2  0
 20 21  1  0
 21 22  2  0
 22 23  1  0
 23 24  2  0
 24 19  1  0
M  END

$$$$
No_303-gen_results_new/Mpro_new_generate_500/2024-01-19-21-58-56/
     RDKit          3D

 35 38  0  0  0  0  0  0  0  0999 V2000
   -9.1300   -2.9100    0.4520 O   0  0  0  0  0  0  0  0  0  0  0  0
  -10.2490   -2.6420    0.1800 C   0  0  0  0  0  0  0  0  0  0  0  0
  -11.3800   -3.0650    1.0860 C   0  0  0  0  0  0  0  0  0  0  0  0
  -11.2000   -3.8390    2.3880 C   0  0  0  0  0  0  0  0  0  0  0  0
  -10.9900   -5.0690    2.3420 N   0  0  0  0  0  0  0  0  0  0  0  0
  -12.7310   -2.7290    0.7330 N   0  0  0  0  0  0  0  0  0  0  0  0
  -12.9960   -1.9940   -0.4510 N   0  0  0  0  0  0  0  0  0  0  0  0
  -14.3580   -1.6940   -0.7530 C   0  0  0  0  0  0  0  0  0  0  0  0
  -15.0390   -0.7180   -0.0560 C   0  0  0  0  0  0  0  0  0  0  0  0
  -16.3510   -0.4690   -0.3980 C   0  0  0  0  0  0  0  0  0  0  0  0
  -16.9430   -1.2030   -1.4080 C   0  0  0  0  0  0  0  0  0  0  0  0
  -18.3840   -0.9560   -1.8060 C   0  0  0  0  0  0  0  0  0  0  0  0
  -16.2510   -2.1690   -2.1000 C   0  0  0  0  0  0  0  0  0  0  0  0
  -14.9490   -2.4160   -1.7590 C   0  0  0  0  0  0  0  0  0  0  0  0
  -11.9050   -1.5730   -1.3540 C   0  0  0  0  0  0  0  0  0  0  0  0
  -10.5280   -1.9050   -1.0240 N   0  0  0  0  0  0  0  0  0  0  0  0
   -9.4550   -1.4720   -1.9190 C   0  0  0  0  0  0  0  0  0  0  0  0
   -9.2820   -2.3940   -3.1270 C   0  0  0  0  0  0  0  0  0  0  0  0
   -7.8170   -2.5500   -3.5360 C   0  0  0  0  0  0  0  0  0  0  0  0
   -6.9720   -3.3210   -2.7550 C   0  0  0  0  0  0  0  0  0  0  0  0
   -5.6390   -3.4770   -3.1110 C   0  0  0  0  0  0  0  0  0  0  0  0
   -5.1940   -2.8390   -4.2640 C   0  0  0  0  0  0  0  0  0  0  0  0
   -6.0850   -2.0780   -5.0070 C   0  0  0  0  0  0  0  0  0  0  0  0
   -7.3470   -1.9600   -4.6270 N   0  0  0  0  0  0  0  0  0  0  0  0
  -12.1450   -0.9640   -2.3390 O   0  0  0  0  0  0  0  0  0  0  0  0
  -18.7610   -1.8760   -2.7390 F   0  0  0  0  0  0  0  0  0  0  0  0
  -18.4550    0.3250   -2.2750 F   0  0  0  0  0  0  0  0  0  0  0  0
  -19.1950   -1.1300   -0.7370 F   0  0  0  0  0  0  0  0  0  0  0  0
  -10.0453   -2.0069   -4.3181 C   0  0  0  0  0  0  0  0  0  0  0  0
   -9.8476   -3.8948   -2.8015 C   0  0  0  0  0  0  0  0  0  0  0  0
  -10.1714   -4.7331   -3.9309 C   0  0  0  0  0  0  0  0  0  0  0  0
  -10.7318   -3.9946   -5.1407 C   0  0  0  0  0  0  0  0  0  0  0  0
  -10.7428   -2.6946   -5.1867 C   0  0  0  0  0  0  0  0  0  0  0  0
  -11.4613   -4.8991   -6.0821 C   0  0  0  0  0  0  0  0  0  0  0  0
  -10.7344   -5.6136   -7.0605 C   0  0  0  0  0  0  0  0  0  0  0  0
  1  2  2  0
  2  3  1  0
  2 16  1  0
  3  4  1  0
  3  6  2  0
  4  5  1  0
  6  7  1  0
  7 15  1  0
  7  8  1  0
 11 12  1  0
 12 28  1  0
 12 27  1  0
 12 26  1  0
 15 16  1  0
 15 25  2  0
 16 17  1  0
 17 18  1  0
 18 19  1  0
 18 29  1  0
 18 30  1  0
 31 32  1  0
 29 33  1  0
 32 34  1  0
 34 35  1  0
 33 32  1  0
 31 30  1  0
  8  9  2  0
  9 10  1  0
 10 11  2  0
 11 13  1  0
 13 14  2  0
 14  8  1  0
 19 20  2  0
 20 21  1  0
 21 22  2  0
 22 23  1  0
 23 24  2  0
 24 19  1  0
M  END

$$$$
No_304-gen_results_new/Mpro_new_generate_500/2024-01-19-21-58-56/
     RDKit          3D

 34 36  0  0  0  0  0  0  0  0999 V2000
   -9.1300   -2.9100    0.4520 O   0  0  0  0  0  0  0  0  0  0  0  0
  -10.2490   -2.6420    0.1800 C   0  0  0  0  0  0  0  0  0  0  0  0
  -11.3800   -3.0650    1.0860 C   0  0  0  0  0  0  0  0  0  0  0  0
  -11.2000   -3.8390    2.3880 C   0  0  0  0  0  0  0  0  0  0  0  0
  -10.9900   -5.0690    2.3420 N   0  0  0  0  0  0  0  0  0  0  0  0
  -12.7310   -2.7290    0.7330 N   0  0  0  0  0  0  0  0  0  0  0  0
  -12.9960   -1.9940   -0.4510 N   0  0  0  0  0  0  0  0  0  0  0  0
  -14.3580   -1.6940   -0.7530 C   0  0  0  0  0  0  0  0  0  0  0  0
  -15.0390   -0.7180   -0.0560 C   0  0  0  0  0  0  0  0  0  0  0  0
  -16.3510   -0.4690   -0.3980 C   0  0  0  0  0  0  0  0  0  0  0  0
  -16.9430   -1.2030   -1.4080 C   0  0  0  0  0  0  0  0  0  0  0  0
  -18.3840   -0.9560   -1.8060 C   0  0  0  0  0  0  0  0  0  0  0  0
  -16.2510   -2.1690   -2.1000 C   0  0  0  0  0  0  0  0  0  0  0  0
  -14.9490   -2.4160   -1.7590 C   0  0  0  0  0  0  0  0  0  0  0  0
  -11.9050   -1.5730   -1.3540 C   0  0  0  0  0  0  0  0  0  0  0  0
  -10.5280   -1.9050   -1.0240 N   0  0  0  0  0  0  0  0  0  0  0  0
   -9.4550   -1.4720   -1.9190 C   0  0  0  0  0  0  0  0  0  0  0  0
   -9.2820   -2.3940   -3.1270 C   0  0  0  0  0  0  0  0  0  0  0  0
   -7.8170   -2.5500   -3.5360 C   0  0  0  0  0  0  0  0  0  0  0  0
   -6.9720   -3.3210   -2.7550 C   0  0  0  0  0  0  0  0  0  0  0  0
   -5.6390   -3.4770   -3.1110 C   0  0  0  0  0  0  0  0  0  0  0  0
   -5.1940   -2.8390   -4.2640 C   0  0  0  0  0  0  0  0  0  0  0  0
   -6.0850   -2.0780   -5.0070 C   0  0  0  0  0  0  0  0  0  0  0  0
   -7.3470   -1.9600   -4.6270 N   0  0  0  0  0  0  0  0  0  0  0  0
  -12.1450   -0.9640   -2.3390 O   0  0  0  0  0  0  0  0  0  0  0  0
  -18.7610   -1.8760   -2.7390 F   0  0  0  0  0  0  0  0  0  0  0  0
  -18.4550    0.3250   -2.2750 F   0  0  0  0  0  0  0  0  0  0  0  0
  -19.1950   -1.1300   -0.7370 F   0  0  0  0  0  0  0  0  0  0  0  0
  -10.0453   -2.0069   -4.3181 C   0  0  0  0  0  0  0  0  0  0  0  0
   -9.8476   -3.8948   -2.8015 C   0  0  0  0  0  0  0  0  0  0  0  0
   -9.1680   -4.8526   -2.1325 C   0  0  0  0  0  0  0  0  0  0  0  0
  -11.0936   -4.1834   -3.0146 O   0  0  0  0  0  0  0  0  0  0  0  0
   -9.1563   -6.0389   -2.6249 C   0  0  0  0  0  0  0  0  0  0  0  0
   -8.2919   -7.3590   -1.6126 Cl  0  0  0  0  0  0  0  0  0  0  0  0
  1  2  2  0
  2  3  1  0
  2 16  1  0
  3  4  1  0
  3  6  2  0
  4  5  1  0
  6  7  1  0
  7 15  1  0
  7  8  1  0
 11 12  1  0
 12 28  1  0
 12 27  1  0
 12 26  1  0
 15 16  1  0
 15 25  2  0
 16 17  1  0
 17 18  1  0
 18 19  1  0
 18 29  1  0
 18 30  1  0
 30 31  1  0
 30 32  2  0
 31 33  2  3
 33 34  1  0
  8  9  2  0
  9 10  1  0
 10 11  2  0
 11 13  1  0
 13 14  2  0
 14  8  1  0
 19 20  2  0
 20 21  1  0
 21 22  2  0
 22 23  1  0
 23 24  2  0
 24 19  1  0
M  END

$$$$
No_305-gen_results_new/Mpro_new_generate_500/2024-01-19-21-58-56/
     RDKit          3D

 35 38  0  0  0  0  0  0  0  0999 V2000
   -9.1300   -2.9100    0.4520 O   0  0  0  0  0  0  0  0  0  0  0  0
  -10.2490   -2.6420    0.1800 C   0  0  0  0  0  0  0  0  0  0  0  0
  -11.3800   -3.0650    1.0860 C   0  0  0  0  0  0  0  0  0  0  0  0
  -11.2000   -3.8390    2.3880 C   0  0  0  0  0  0  0  0  0  0  0  0
  -10.9900   -5.0690    2.3420 N   0  0  0  0  0  0  0  0  0  0  0  0
  -12.7310   -2.7290    0.7330 N   0  0  0  0  0  0  0  0  0  0  0  0
  -12.9960   -1.9940   -0.4510 N   0  0  0  0  0  0  0  0  0  0  0  0
  -14.3580   -1.6940   -0.7530 C   0  0  0  0  0  0  0  0  0  0  0  0
  -15.0390   -0.7180   -0.0560 C   0  0  0  0  0  0  0  0  0  0  0  0
  -16.3510   -0.4690   -0.3980 C   0  0  0  0  0  0  0  0  0  0  0  0
  -16.9430   -1.2030   -1.4080 C   0  0  0  0  0  0  0  0  0  0  0  0
  -18.3840   -0.9560   -1.8060 C   0  0  0  0  0  0  0  0  0  0  0  0
  -16.2510   -2.1690   -2.1000 C   0  0  0  0  0  0  0  0  0  0  0  0
  -14.9490   -2.4160   -1.7590 C   0  0  0  0  0  0  0  0  0  0  0  0
  -11.9050   -1.5730   -1.3540 C   0  0  0  0  0  0  0  0  0  0  0  0
  -10.5280   -1.9050   -1.0240 N   0  0  0  0  0  0  0  0  0  0  0  0
   -9.4550   -1.4720   -1.9190 C   0  0  0  0  0  0  0  0  0  0  0  0
   -9.2820   -2.3940   -3.1270 C   0  0  0  0  0  0  0  0  0  0  0  0
   -7.8170   -2.5500   -3.5360 C   0  0  0  0  0  0  0  0  0  0  0  0
   -6.9720   -3.3210   -2.7550 C   0  0  0  0  0  0  0  0  0  0  0  0
   -5.6390   -3.4770   -3.1110 C   0  0  0  0  0  0  0  0  0  0  0  0
   -5.1940   -2.8390   -4.2640 C   0  0  0  0  0  0  0  0  0  0  0  0
   -6.0850   -2.0780   -5.0070 C   0  0  0  0  0  0  0  0  0  0  0  0
   -7.3470   -1.9600   -4.6270 N   0  0  0  0  0  0  0  0  0  0  0  0
  -12.1450   -0.9640   -2.3390 O   0  0  0  0  0  0  0  0  0  0  0  0
  -18.7610   -1.8760   -2.7390 F   0  0  0  0  0  0  0  0  0  0  0  0
  -18.4550    0.3250   -2.2750 F   0  0  0  0  0  0  0  0  0  0  0  0
  -19.1950   -1.1300   -0.7370 F   0  0  0  0  0  0  0  0  0  0  0  0
  -10.0453   -2.0069   -4.3181 C   0  0  0  0  0  0  0  0  0  0  0  0
   -9.8476   -3.8948   -2.8015 C   0  0  0  0  0  0  0  0  0  0  0  0
  -10.1714   -4.7331   -3.9309 C   0  0  0  0  0  0  0  0  0  0  0  0
  -10.7318   -3.9946   -5.1407 C   0  0  0  0  0  0  0  0  0  0  0  0
  -10.7428   -2.6946   -5.1867 C   0  0  0  0  0  0  0  0  0  0  0  0
  -11.4029   -4.8297   -5.9589 F   0  0  0  0  0  0  0  0  0  0  0  0
   -9.8606   -0.6295   -4.7620 O   0  0  0  0  0  0  0  0  0  0  0  0
  1  2  2  0
  2  3  1  0
  2 16  1  0
  3  4  1  0
  3  6  2  0
  4  5  1  0
  6  7  1  0
  7 15  1  0
  7  8  1  0
 11 12  1  0
 12 28  1  0
 12 27  1  0
 12 26  1  0
 15 16  1  0
 15 25  2  0
 16 17  1  0
 17 18  1  0
 18 19  1  0
 18 29  1  0
 18 30  1  0
 31 32  1  0
 29 33  1  0
 32 34  1  0
 29 35  2  0
 33 32  1  0
 31 30  1  0
  8  9  2  0
  9 10  1  0
 10 11  2  0
 11 13  1  0
 13 14  2  0
 14  8  1  0
 19 20  2  0
 20 21  1  0
 21 22  2  0
 22 23  1  0
 23 24  2  0
 24 19  1  0
M  END

$$$$
No_306-gen_results_new/Mpro_new_generate_500/2024-01-19-21-58-56/
     RDKit          3D

 34 36  0  0  0  0  0  0  0  0999 V2000
   -9.1300   -2.9100    0.4520 O   0  0  0  0  0  0  0  0  0  0  0  0
  -10.2490   -2.6420    0.1800 C   0  0  0  0  0  0  0  0  0  0  0  0
  -11.3800   -3.0650    1.0860 C   0  0  0  0  0  0  0  0  0  0  0  0
  -11.2000   -3.8390    2.3880 C   0  0  0  0  0  0  0  0  0  0  0  0
  -10.9900   -5.0690    2.3420 N   0  0  0  0  0  0  0  0  0  0  0  0
  -12.7310   -2.7290    0.7330 N   0  0  0  0  0  0  0  0  0  0  0  0
  -12.9960   -1.9940   -0.4510 N   0  0  0  0  0  0  0  0  0  0  0  0
  -14.3580   -1.6940   -0.7530 C   0  0  0  0  0  0  0  0  0  0  0  0
  -15.0390   -0.7180   -0.0560 C   0  0  0  0  0  0  0  0  0  0  0  0
  -16.3510   -0.4690   -0.3980 C   0  0  0  0  0  0  0  0  0  0  0  0
  -16.9430   -1.2030   -1.4080 C   0  0  0  0  0  0  0  0  0  0  0  0
  -18.3840   -0.9560   -1.8060 C   0  0  0  0  0  0  0  0  0  0  0  0
  -16.2510   -2.1690   -2.1000 C   0  0  0  0  0  0  0  0  0  0  0  0
  -14.9490   -2.4160   -1.7590 C   0  0  0  0  0  0  0  0  0  0  0  0
  -11.9050   -1.5730   -1.3540 C   0  0  0  0  0  0  0  0  0  0  0  0
  -10.5280   -1.9050   -1.0240 N   0  0  0  0  0  0  0  0  0  0  0  0
   -9.4550   -1.4720   -1.9190 C   0  0  0  0  0  0  0  0  0  0  0  0
   -9.2820   -2.3940   -3.1270 C   0  0  0  0  0  0  0  0  0  0  0  0
   -7.8170   -2.5500   -3.5360 C   0  0  0  0  0  0  0  0  0  0  0  0
   -6.9720   -3.3210   -2.7550 C   0  0  0  0  0  0  0  0  0  0  0  0
   -5.6390   -3.4770   -3.1110 C   0  0  0  0  0  0  0  0  0  0  0  0
   -5.1940   -2.8390   -4.2640 C   0  0  0  0  0  0  0  0  0  0  0  0
   -6.0850   -2.0780   -5.0070 C   0  0  0  0  0  0  0  0  0  0  0  0
   -7.3470   -1.9600   -4.6270 N   0  0  0  0  0  0  0  0  0  0  0  0
  -12.1450   -0.9640   -2.3390 O   0  0  0  0  0  0  0  0  0  0  0  0
  -18.7610   -1.8760   -2.7390 F   0  0  0  0  0  0  0  0  0  0  0  0
  -18.4550    0.3250   -2.2750 F   0  0  0  0  0  0  0  0  0  0  0  0
  -19.1950   -1.1300   -0.7370 F   0  0  0  0  0  0  0  0  0  0  0  0
  -10.0453   -2.0069   -4.3181 C   0  0  0  0  0  0  0  0  0  0  0  0
   -9.8476   -3.8948   -2.8015 C   0  0  0  0  0  0  0  0  0  0  0  0
  -10.1714   -4.7331   -3.9309 C   0  0  0  0  0  0  0  0  0  0  0  0
  -10.6292   -4.1807   -4.8519 F   0  0  0  0  0  0  0  0  0  0  0  0
  -10.0027   -5.9346   -3.7789 F   0  0  0  0  0  0  0  0  0  0  0  0
  -11.3044   -4.8130   -3.8158 F   0  0  0  0  0  0  0  0  0  0  0  0
  1  2  2  0
  2  3  1  0
  2 16  1  0
  3  4  1  0
  3  6  2  0
  4  5  1  0
  6  7  1  0
  7 15  1  0
  7  8  1  0
 11 12  1  0
 12 28  1  0
 12 27  1  0
 12 26  1  0
 15 16  1  0
 15 25  2  0
 16 17  1  0
 17 18  1  0
 18 19  1  0
 18 29  1  0
 18 30  1  0
 30 31  1  0
 31 32  1  0
 31 33  1  0
 31 34  1  0
  8  9  2  0
  9 10  1  0
 10 11  2  0
 11 13  1  0
 13 14  2  0
 14  8  1  0
 19 20  2  0
 20 21  1  0
 21 22  2  0
 22 23  1  0
 23 24  2  0
 24 19  1  0
M  END

$$$$
No_307-gen_results_new/Mpro_new_generate_500/2024-01-19-21-58-56/
     RDKit          3D

 35 38  0  0  0  0  0  0  0  0999 V2000
   -9.1300   -2.9100    0.4520 O   0  0  0  0  0  0  0  0  0  0  0  0
  -10.2490   -2.6420    0.1800 C   0  0  0  0  0  0  0  0  0  0  0  0
  -11.3800   -3.0650    1.0860 C   0  0  0  0  0  0  0  0  0  0  0  0
  -11.2000   -3.8390    2.3880 C   0  0  0  0  0  0  0  0  0  0  0  0
  -10.9900   -5.0690    2.3420 N   0  0  0  0  0  0  0  0  0  0  0  0
  -12.7310   -2.7290    0.7330 N   0  0  0  0  0  0  0  0  0  0  0  0
  -12.9960   -1.9940   -0.4510 N   0  0  0  0  0  0  0  0  0  0  0  0
  -14.3580   -1.6940   -0.7530 C   0  0  0  0  0  0  0  0  0  0  0  0
  -15.0390   -0.7180   -0.0560 C   0  0  0  0  0  0  0  0  0  0  0  0
  -16.3510   -0.4690   -0.3980 C   0  0  0  0  0  0  0  0  0  0  0  0
  -16.9430   -1.2030   -1.4080 C   0  0  0  0  0  0  0  0  0  0  0  0
  -18.3840   -0.9560   -1.8060 C   0  0  0  0  0  0  0  0  0  0  0  0
  -16.2510   -2.1690   -2.1000 C   0  0  0  0  0  0  0  0  0  0  0  0
  -14.9490   -2.4160   -1.7590 C   0  0  0  0  0  0  0  0  0  0  0  0
  -11.9050   -1.5730   -1.3540 C   0  0  0  0  0  0  0  0  0  0  0  0
  -10.5280   -1.9050   -1.0240 N   0  0  0  0  0  0  0  0  0  0  0  0
   -9.4550   -1.4720   -1.9190 C   0  0  0  0  0  0  0  0  0  0  0  0
   -9.2820   -2.3940   -3.1270 C   0  0  0  0  0  0  0  0  0  0  0  0
   -7.8170   -2.5500   -3.5360 C   0  0  0  0  0  0  0  0  0  0  0  0
   -6.9720   -3.3210   -2.7550 C   0  0  0  0  0  0  0  0  0  0  0  0
   -5.6390   -3.4770   -3.1110 C   0  0  0  0  0  0  0  0  0  0  0  0
   -5.1940   -2.8390   -4.2640 C   0  0  0  0  0  0  0  0  0  0  0  0
   -6.0850   -2.0780   -5.0070 C   0  0  0  0  0  0  0  0  0  0  0  0
   -7.3470   -1.9600   -4.6270 N   0  0  0  0  0  0  0  0  0  0  0  0
  -12.1450   -0.9640   -2.3390 O   0  0  0  0  0  0  0  0  0  0  0  0
  -18.7610   -1.8760   -2.7390 F   0  0  0  0  0  0  0  0  0  0  0  0
  -18.4550    0.3250   -2.2750 F   0  0  0  0  0  0  0  0  0  0  0  0
  -19.1950   -1.1300   -0.7370 F   0  0  0  0  0  0  0  0  0  0  0  0
   -9.7920   -3.7475   -2.8656 C   0  0  0  0  0  0  0  0  0  0  0  0
  -10.0717   -1.8029   -4.3549 C   0  0  0  0  0  0  0  0  0  0  0  0
  -10.8816   -4.2900   -3.6532 C   0  0  0  0  0  0  0  0  0  0  0  0
  -10.4719   -4.5023   -4.6401 C   0  0  0  0  0  0  0  0  0  0  0  0
  -10.9270   -3.2324   -5.4854 C   0  0  0  0  0  0  0  0  0  0  0  0
  -11.1766   -2.9452   -6.5974 F   0  0  0  0  0  0  0  0  0  0  0  0
  -10.8210   -2.0804   -5.1027 C   0  0  0  0  0  0  0  0  0  0  0  0
  1  2  2  0
  2  3  1  0
  2 16  1  0
  3  4  1  0
  3  6  2  0
  4  5  1  0
  6  7  1  0
  7 15  1  0
  7  8  1  0
 11 12  1  0
 12 28  1  0
 12 27  1  0
 12 26  1  0
 15 16  1  0
 15 25  2  0
 16 17  1  0
 17 18  1  0
 18 19  1  0
 18 29  1  0
 18 30  1  0
 29 31  1  0
 31 32  2  0
 32 33  1  0
 33 34  1  0
 30 35  1  0
 33 35  1  0
  8  9  2  0
  9 10  1  0
 10 11  2  0
 11 13  1  0
 13 14  2  0
 14  8  1  0
 19 20  2  0
 20 21  1  0
 21 22  2  0
 22 23  1  0
 23 24  2  0
 24 19  1  0
M  END

$$$$
No_308-gen_results_new/Mpro_new_generate_500/2024-01-19-21-58-56/
     RDKit          3D

 35 38  0  0  0  0  0  0  0  0999 V2000
   -9.1300   -2.9100    0.4520 O   0  0  0  0  0  0  0  0  0  0  0  0
  -10.2490   -2.6420    0.1800 C   0  0  0  0  0  0  0  0  0  0  0  0
  -11.3800   -3.0650    1.0860 C   0  0  0  0  0  0  0  0  0  0  0  0
  -11.2000   -3.8390    2.3880 C   0  0  0  0  0  0  0  0  0  0  0  0
  -10.9900   -5.0690    2.3420 N   0  0  0  0  0  0  0  0  0  0  0  0
  -12.7310   -2.7290    0.7330 N   0  0  0  0  0  0  0  0  0  0  0  0
  -12.9960   -1.9940   -0.4510 N   0  0  0  0  0  0  0  0  0  0  0  0
  -14.3580   -1.6940   -0.7530 C   0  0  0  0  0  0  0  0  0  0  0  0
  -15.0390   -0.7180   -0.0560 C   0  0  0  0  0  0  0  0  0  0  0  0
  -16.3510   -0.4690   -0.3980 C   0  0  0  0  0  0  0  0  0  0  0  0
  -16.9430   -1.2030   -1.4080 C   0  0  0  0  0  0  0  0  0  0  0  0
  -18.3840   -0.9560   -1.8060 C   0  0  0  0  0  0  0  0  0  0  0  0
  -16.2510   -2.1690   -2.1000 C   0  0  0  0  0  0  0  0  0  0  0  0
  -14.9490   -2.4160   -1.7590 C   0  0  0  0  0  0  0  0  0  0  0  0
  -11.9050   -1.5730   -1.3540 C   0  0  0  0  0  0  0  0  0  0  0  0
  -10.5280   -1.9050   -1.0240 N   0  0  0  0  0  0  0  0  0  0  0  0
   -9.4550   -1.4720   -1.9190 C   0  0  0  0  0  0  0  0  0  0  0  0
   -9.2820   -2.3940   -3.1270 C   0  0  0  0  0  0  0  0  0  0  0  0
   -7.8170   -2.5500   -3.5360 C   0  0  0  0  0  0  0  0  0  0  0  0
   -6.9720   -3.3210   -2.7550 C   0  0  0  0  0  0  0  0  0  0  0  0
   -5.6390   -3.4770   -3.1110 C   0  0  0  0  0  0  0  0  0  0  0  0
   -5.1940   -2.8390   -4.2640 C   0  0  0  0  0  0  0  0  0  0  0  0
   -6.0850   -2.0780   -5.0070 C   0  0  0  0  0  0  0  0  0  0  0  0
   -7.3470   -1.9600   -4.6270 N   0  0  0  0  0  0  0  0  0  0  0  0
  -12.1450   -0.9640   -2.3390 O   0  0  0  0  0  0  0  0  0  0  0  0
  -18.7610   -1.8760   -2.7390 F   0  0  0  0  0  0  0  0  0  0  0  0
  -18.4550    0.3250   -2.2750 F   0  0  0  0  0  0  0  0  0  0  0  0
  -19.1950   -1.1300   -0.7370 F   0  0  0  0  0  0  0  0  0  0  0  0
  -10.0453   -2.0069   -4.3181 C   0  0  0  0  0  0  0  0  0  0  0  0
   -9.8476   -3.8948   -2.8015 C   0  0  0  0  0  0  0  0  0  0  0  0
  -10.1714   -4.7331   -3.9309 C   0  0  0  0  0  0  0  0  0  0  0  0
  -10.6132   -4.1472   -4.9938 O   0  0  0  0  0  0  0  0  0  0  0  0
  -10.9143   -2.8234   -5.0615 C   0  0  0  0  0  0  0  0  0  0  0  0
  -11.4440   -2.3796   -6.2124 O   0  0  0  0  0  0  0  0  0  0  0  0
   -9.9153   -0.6502   -4.6793 O   0  0  0  0  0  0  0  0  0  0  0  0
  1  2  2  0
  2  3  1  0
  2 16  1  0
  3  4  1  0
  3  6  2  0
  4  5  1  0
  6  7  1  0
  7 15  1  0
  7  8  1  0
 11 12  1  0
 12 28  1  0
 12 27  1  0
 12 26  1  0
 15 16  1  0
 15 25  2  0
 16 17  1  0
 17 18  1  0
 18 19  1  0
 18 29  1  0
 18 30  1  0
 30 31  2  0
 31 32  1  0
 29 33  1  0
 32 33  1  0
 33 34  2  0
 29 35  2  0
  8  9  2  0
  9 10  1  0
 10 11  2  0
 11 13  1  0
 13 14  2  0
 14  8  1  0
 19 20  2  0
 20 21  1  0
 21 22  2  0
 22 23  1  0
 23 24  2  0
 24 19  1  0
M  END

$$$$
No_309-gen_results_new/Mpro_new_generate_500/2024-01-19-21-58-56/
     RDKit          3D

 35 38  0  0  0  0  0  0  0  0999 V2000
   -9.1300   -2.9100    0.4520 O   0  0  0  0  0  0  0  0  0  0  0  0
  -10.2490   -2.6420    0.1800 C   0  0  0  0  0  0  0  0  0  0  0  0
  -11.3800   -3.0650    1.0860 C   0  0  0  0  0  0  0  0  0  0  0  0
  -11.2000   -3.8390    2.3880 C   0  0  0  0  0  0  0  0  0  0  0  0
  -10.9900   -5.0690    2.3420 N   0  0  0  0  0  0  0  0  0  0  0  0
  -12.7310   -2.7290    0.7330 N   0  0  0  0  0  0  0  0  0  0  0  0
  -12.9960   -1.9940   -0.4510 N   0  0  0  0  0  0  0  0  0  0  0  0
  -14.3580   -1.6940   -0.7530 C   0  0  0  0  0  0  0  0  0  0  0  0
  -15.0390   -0.7180   -0.0560 C   0  0  0  0  0  0  0  0  0  0  0  0
  -16.3510   -0.4690   -0.3980 C   0  0  0  0  0  0  0  0  0  0  0  0
  -16.9430   -1.2030   -1.4080 C   0  0  0  0  0  0  0  0  0  0  0  0
  -18.3840   -0.9560   -1.8060 C   0  0  0  0  0  0  0  0  0  0  0  0
  -16.2510   -2.1690   -2.1000 C   0  0  0  0  0  0  0  0  0  0  0  0
  -14.9490   -2.4160   -1.7590 C   0  0  0  0  0  0  0  0  0  0  0  0
  -11.9050   -1.5730   -1.3540 C   0  0  0  0  0  0  0  0  0  0  0  0
  -10.5280   -1.9050   -1.0240 N   0  0  0  0  0  0  0  0  0  0  0  0
   -9.4550   -1.4720   -1.9190 C   0  0  0  0  0  0  0  0  0  0  0  0
   -9.2820   -2.3940   -3.1270 C   0  0  0  0  0  0  0  0  0  0  0  0
   -7.8170   -2.5500   -3.5360 C   0  0  0  0  0  0  0  0  0  0  0  0
   -6.9720   -3.3210   -2.7550 C   0  0  0  0  0  0  0  0  0  0  0  0
   -5.6390   -3.4770   -3.1110 C   0  0  0  0  0  0  0  0  0  0  0  0
   -5.1940   -2.8390   -4.2640 C   0  0  0  0  0  0  0  0  0  0  0  0
   -6.0850   -2.0780   -5.0070 C   0  0  0  0  0  0  0  0  0  0  0  0
   -7.3470   -1.9600   -4.6270 N   0  0  0  0  0  0  0  0  0  0  0  0
  -12.1450   -0.9640   -2.3390 O   0  0  0  0  0  0  0  0  0  0  0  0
  -18.7610   -1.8760   -2.7390 F   0  0  0  0  0  0  0  0  0  0  0  0
  -18.4550    0.3250   -2.2750 F   0  0  0  0  0  0  0  0  0  0  0  0
  -19.1950   -1.1300   -0.7370 F   0  0  0  0  0  0  0  0  0  0  0  0
  -10.0122   -2.0535   -4.1781 O   0  0  0  0  0  0  0  0  0  0  0  0
   -9.8359   -3.9291   -2.7881 C   0  0  0  0  0  0  0  0  0  0  0  0
   -9.9548   -4.4979   -1.8339 F   0  0  0  0  0  0  0  0  0  0  0  0
  -10.8380   -4.2781   -3.7557 C   0  0  0  0  0  0  0  0  0  0  0  0
   -9.1469   -4.7729   -3.6078 F   0  0  0  0  0  0  0  0  0  0  0  0
  -11.5809   -5.0717   -4.1146 O   0  0  0  0  0  0  0  0  0  0  0  0
  -11.0419   -2.9214   -4.0752 C   0  0  0  0  0  0  0  0  0  0  0  0
  1  2  2  0
  2  3  1  0
  2 16  1  0
  3  4  1  0
  3  6  2  0
  4  5  1  0
  6  7  1  0
  7 15  1  0
  7  8  1  0
 11 12  1  0
 12 28  1  0
 12 27  1  0
 12 26  1  0
 15 16  1  0
 15 25  2  0
 16 17  1  0
 17 18  1  0
 18 19  1  0
 18 29  1  0
 18 30  1  0
 30 31  1  0
 30 32  1  0
 30 33  1  0
 32 34  2  0
 29 35  1  0
 32 35  1  0
  8  9  2  0
  9 10  1  0
 10 11  2  0
 11 13  1  0
 13 14  2  0
 14  8  1  0
 19 20  2  0
 20 21  1  0
 21 22  2  0
 22 23  1  0
 23 24  2  0
 24 19  1  0
M  END

$$$$
No_310-gen_results_new/Mpro_new_generate_500/2024-01-19-21-58-56/
     RDKit          3D

 34 36  0  0  0  0  0  0  0  0999 V2000
   -9.1300   -2.9100    0.4520 O   0  0  0  0  0  0  0  0  0  0  0  0
  -10.2490   -2.6420    0.1800 C   0  0  0  0  0  0  0  0  0  0  0  0
  -11.3800   -3.0650    1.0860 C   0  0  0  0  0  0  0  0  0  0  0  0
  -11.2000   -3.8390    2.3880 C   0  0  0  0  0  0  0  0  0  0  0  0
  -10.9900   -5.0690    2.3420 N   0  0  0  0  0  0  0  0  0  0  0  0
  -12.7310   -2.7290    0.7330 N   0  0  0  0  0  0  0  0  0  0  0  0
  -12.9960   -1.9940   -0.4510 N   0  0  0  0  0  0  0  0  0  0  0  0
  -14.3580   -1.6940   -0.7530 C   0  0  0  0  0  0  0  0  0  0  0  0
  -15.0390   -0.7180   -0.0560 C   0  0  0  0  0  0  0  0  0  0  0  0
  -16.3510   -0.4690   -0.3980 C   0  0  0  0  0  0  0  0  0  0  0  0
  -16.9430   -1.2030   -1.4080 C   0  0  0  0  0  0  0  0  0  0  0  0
  -18.3840   -0.9560   -1.8060 C   0  0  0  0  0  0  0  0  0  0  0  0
  -16.2510   -2.1690   -2.1000 C   0  0  0  0  0  0  0  0  0  0  0  0
  -14.9490   -2.4160   -1.7590 C   0  0  0  0  0  0  0  0  0  0  0  0
  -11.9050   -1.5730   -1.3540 C   0  0  0  0  0  0  0  0  0  0  0  0
  -10.5280   -1.9050   -1.0240 N   0  0  0  0  0  0  0  0  0  0  0  0
   -9.4550   -1.4720   -1.9190 C   0  0  0  0  0  0  0  0  0  0  0  0
   -9.2820   -2.3940   -3.1270 C   0  0  0  0  0  0  0  0  0  0  0  0
   -7.8170   -2.5500   -3.5360 C   0  0  0  0  0  0  0  0  0  0  0  0
   -6.9720   -3.3210   -2.7550 C   0  0  0  0  0  0  0  0  0  0  0  0
   -5.6390   -3.4770   -3.1110 C   0  0  0  0  0  0  0  0  0  0  0  0
   -5.1940   -2.8390   -4.2640 C   0  0  0  0  0  0  0  0  0  0  0  0
   -6.0850   -2.0780   -5.0070 C   0  0  0  0  0  0  0  0  0  0  0  0
   -7.3470   -1.9600   -4.6270 N   0  0  0  0  0  0  0  0  0  0  0  0
  -12.1450   -0.9640   -2.3390 O   0  0  0  0  0  0  0  0  0  0  0  0
  -18.7610   -1.8760   -2.7390 F   0  0  0  0  0  0  0  0  0  0  0  0
  -18.4550    0.3250   -2.2750 F   0  0  0  0  0  0  0  0  0  0  0  0
  -19.1950   -1.1300   -0.7370 F   0  0  0  0  0  0  0  0  0  0  0  0
  -10.0453   -2.0069   -4.3181 C   0  0  0  0  0  0  0  0  0  0  0  0
   -9.8476   -3.8948   -2.8015 C   0  0  0  0  0  0  0  0  0  0  0  0
   -9.2607   -4.5187   -1.7349 F   0  0  0  0  0  0  0  0  0  0  0  0
   -9.6693   -4.7227   -3.8990 F   0  0  0  0  0  0  0  0  0  0  0  0
  -10.9220   -3.8534   -2.1396 O   0  0  0  0  0  0  0  0  0  0  0  0
  -11.3470   -5.3185   -2.1466 C   0  0  0  0  0  0  0  0  0  0  0  0
  1  2  2  0
  2  3  1  0
  2 16  1  0
  3  4  1  0
  3  6  2  0
  4  5  1  0
  6  7  1  0
  7 15  1  0
  7  8  1  0
 11 12  1  0
 12 28  1  0
 12 27  1  0
 12 26  1  0
 15 16  1  0
 15 25  2  0
 16 17  1  0
 17 18  1  0
 18 19  1  0
 18 29  1  0
 18 30  1  0
 30 31  1  0
 30 32  1  0
 30 33  1  0
 33 34  1  0
  8  9  2  0
  9 10  1  0
 10 11  2  0
 11 13  1  0
 13 14  2  0
 14  8  1  0
 19 20  2  0
 20 21  1  0
 21 22  2  0
 22 23  1  0
 23 24  2  0
 24 19  1  0
M  END

$$$$
No_311-gen_results_new/Mpro_new_generate_500/2024-01-19-21-58-56/
     RDKit          3D

 35 37  0  0  0  0  0  0  0  0999 V2000
   -9.1300   -2.9100    0.4520 O   0  0  0  0  0  0  0  0  0  0  0  0
  -10.2490   -2.6420    0.1800 C   0  0  0  0  0  0  0  0  0  0  0  0
  -11.3800   -3.0650    1.0860 C   0  0  0  0  0  0  0  0  0  0  0  0
  -11.2000   -3.8390    2.3880 C   0  0  0  0  0  0  0  0  0  0  0  0
  -10.9900   -5.0690    2.3420 N   0  0  0  0  0  0  0  0  0  0  0  0
  -12.7310   -2.7290    0.7330 N   0  0  0  0  0  0  0  0  0  0  0  0
  -12.9960   -1.9940   -0.4510 N   0  0  0  0  0  0  0  0  0  0  0  0
  -14.3580   -1.6940   -0.7530 C   0  0  0  0  0  0  0  0  0  0  0  0
  -15.0390   -0.7180   -0.0560 C   0  0  0  0  0  0  0  0  0  0  0  0
  -16.3510   -0.4690   -0.3980 C   0  0  0  0  0  0  0  0  0  0  0  0
  -16.9430   -1.2030   -1.4080 C   0  0  0  0  0  0  0  0  0  0  0  0
  -18.3840   -0.9560   -1.8060 C   0  0  0  0  0  0  0  0  0  0  0  0
  -16.2510   -2.1690   -2.1000 C   0  0  0  0  0  0  0  0  0  0  0  0
  -14.9490   -2.4160   -1.7590 C   0  0  0  0  0  0  0  0  0  0  0  0
  -11.9050   -1.5730   -1.3540 C   0  0  0  0  0  0  0  0  0  0  0  0
  -10.5280   -1.9050   -1.0240 N   0  0  0  0  0  0  0  0  0  0  0  0
   -9.4550   -1.4720   -1.9190 C   0  0  0  0  0  0  0  0  0  0  0  0
   -9.2820   -2.3940   -3.1270 C   0  0  0  0  0  0  0  0  0  0  0  0
   -7.8170   -2.5500   -3.5360 C   0  0  0  0  0  0  0  0  0  0  0  0
   -6.9720   -3.3210   -2.7550 C   0  0  0  0  0  0  0  0  0  0  0  0
   -5.6390   -3.4770   -3.1110 C   0  0  0  0  0  0  0  0  0  0  0  0
   -5.1940   -2.8390   -4.2640 C   0  0  0  0  0  0  0  0  0  0  0  0
   -6.0850   -2.0780   -5.0070 C   0  0  0  0  0  0  0  0  0  0  0  0
   -7.3470   -1.9600   -4.6270 N   0  0  0  0  0  0  0  0  0  0  0  0
  -12.1450   -0.9640   -2.3390 O   0  0  0  0  0  0  0  0  0  0  0  0
  -18.7610   -1.8760   -2.7390 F   0  0  0  0  0  0  0  0  0  0  0  0
  -18.4550    0.3250   -2.2750 F   0  0  0  0  0  0  0  0  0  0  0  0
  -19.1950   -1.1300   -0.7370 F   0  0  0  0  0  0  0  0  0  0  0  0
  -10.0899   -3.0088   -3.7244 O   0  0  0  0  0  0  0  0  0  0  0  0
  -16.7844   -3.0180   -3.1233 O   0  0  0  0  0  0  0  0  0  0  0  0
  -16.5408   -4.4495   -2.9958 C   0  0  0  0  0  0  0  0  0  0  0  0
  -15.4005   -4.7138   -4.0517 C   0  0  0  0  0  0  0  0  0  0  0  0
  -14.2662   -5.1719   -3.2937 N   0  0  0  0  0  0  0  0  0  0  0  0
  -13.0571   -4.9626   -4.0150 C   0  0  0  0  0  0  0  0  0  0  0  0
  -14.1403   -5.1432   -1.9498 C   0  0  0  0  0  0  0  0  0  0  0  0
  1  2  2  0
  2  3  1  0
  2 16  1  0
  3  4  1  0
  3  6  2  0
  4  5  1  0
  6  7  1  0
  7 15  1  0
  7  8  1  0
 11 12  1  0
 12 28  1  0
 12 27  1  0
 12 26  1  0
 15 16  1  0
 15 25  2  0
 16 17  1  0
 17 18  1  0
 18 19  1  0
 18 29  2  0
 13 30  1  0
 30 31  1  0
 31 32  1  0
 32 33  1  0
 33 34  1  0
 33 35  1  0
  8  9  2  0
  9 10  1  0
 10 11  2  0
 11 13  1  0
 13 14  2  0
 14  8  1  0
 19 20  2  0
 20 21  1  0
 21 22  2  0
 22 23  1  0
 23 24  2  0
 24 19  1  0
M  END

$$$$
No_312-gen_results_new/Mpro_new_generate_500/2024-01-19-21-58-56/
     RDKit          3D

 35 37  0  0  0  0  0  0  0  0999 V2000
   -9.1300   -2.9100    0.4520 O   0  0  0  0  0  0  0  0  0  0  0  0
  -10.2490   -2.6420    0.1800 C   0  0  0  0  0  0  0  0  0  0  0  0
  -11.3800   -3.0650    1.0860 C   0  0  0  0  0  0  0  0  0  0  0  0
  -11.2000   -3.8390    2.3880 C   0  0  0  0  0  0  0  0  0  0  0  0
  -10.9900   -5.0690    2.3420 N   0  0  0  0  0  0  0  0  0  0  0  0
  -12.7310   -2.7290    0.7330 N   0  0  0  0  0  0  0  0  0  0  0  0
  -12.9960   -1.9940   -0.4510 N   0  0  0  0  0  0  0  0  0  0  0  0
  -14.3580   -1.6940   -0.7530 C   0  0  0  0  0  0  0  0  0  0  0  0
  -15.0390   -0.7180   -0.0560 C   0  0  0  0  0  0  0  0  0  0  0  0
  -16.3510   -0.4690   -0.3980 C   0  0  0  0  0  0  0  0  0  0  0  0
  -16.9430   -1.2030   -1.4080 C   0  0  0  0  0  0  0  0  0  0  0  0
  -18.3840   -0.9560   -1.8060 C   0  0  0  0  0  0  0  0  0  0  0  0
  -16.2510   -2.1690   -2.1000 C   0  0  0  0  0  0  0  0  0  0  0  0
  -14.9490   -2.4160   -1.7590 C   0  0  0  0  0  0  0  0  0  0  0  0
  -11.9050   -1.5730   -1.3540 C   0  0  0  0  0  0  0  0  0  0  0  0
  -10.5280   -1.9050   -1.0240 N   0  0  0  0  0  0  0  0  0  0  0  0
   -9.4550   -1.4720   -1.9190 C   0  0  0  0  0  0  0  0  0  0  0  0
   -9.2820   -2.3940   -3.1270 C   0  0  0  0  0  0  0  0  0  0  0  0
   -7.8170   -2.5500   -3.5360 C   0  0  0  0  0  0  0  0  0  0  0  0
   -6.9720   -3.3210   -2.7550 C   0  0  0  0  0  0  0  0  0  0  0  0
   -5.6390   -3.4770   -3.1110 C   0  0  0  0  0  0  0  0  0  0  0  0
   -5.1940   -2.8390   -4.2640 C   0  0  0  0  0  0  0  0  0  0  0  0
   -6.0850   -2.0780   -5.0070 C   0  0  0  0  0  0  0  0  0  0  0  0
   -7.3470   -1.9600   -4.6270 N   0  0  0  0  0  0  0  0  0  0  0  0
  -12.1450   -0.9640   -2.3390 O   0  0  0  0  0  0  0  0  0  0  0  0
  -18.7610   -1.8760   -2.7390 F   0  0  0  0  0  0  0  0  0  0  0  0
  -18.4550    0.3250   -2.2750 F   0  0  0  0  0  0  0  0  0  0  0  0
  -19.1950   -1.1300   -0.7370 F   0  0  0  0  0  0  0  0  0  0  0  0
   -9.7920   -3.7475   -2.8656 C   0  0  0  0  0  0  0  0  0  0  0  0
   -9.9778   -1.5944   -4.2803 C   0  0  0  0  0  0  0  0  0  0  0  0
  -10.0812   -4.2776   -1.9077 O   0  0  0  0  0  0  0  0  0  0  0  0
   -9.9292   -4.7279   -4.0419 C   0  0  0  0  0  0  0  0  0  0  0  0
  -11.1829   -4.8621   -4.7137 C   0  0  0  0  0  0  0  0  0  0  0  0
  -10.9899   -5.1400   -6.1176 C   0  0  0  0  0  0  0  0  0  0  0  0
  -10.7878   -4.1544   -7.0321 C   0  0  0  0  0  0  0  0  0  0  0  0
  1  2  2  0
  2  3  1  0
  2 16  1  0
  3  4  1  0
  3  6  2  0
  4  5  1  0
  6  7  1  0
  7 15  1  0
  7  8  1  0
 11 12  1  0
 12 28  1  0
 12 27  1  0
 12 26  1  0
 15 16  1  0
 15 25  2  0
 16 17  1  0
 17 18  1  0
 18 19  1  0
 18 29  1  0
 18 30  1  0
 29 31  2  0
 29 32  1  0
 32 33  1  0
 33 34  1  0
 34 35  1  0
  8  9  2  0
  9 10  1  0
 10 11  2  0
 11 13  1  0
 13 14  2  0
 14  8  1  0
 19 20  2  0
 20 21  1  0
 21 22  2  0
 22 23  1  0
 23 24  2  0
 24 19  1  0
M  END

$$$$
No_313-gen_results_new/Mpro_new_generate_500/2024-01-19-21-58-56/
     RDKit          3D

 33 35  0  0  0  0  0  0  0  0999 V2000
   -9.1300   -2.9100    0.4520 O   0  0  0  0  0  0  0  0  0  0  0  0
  -10.2490   -2.6420    0.1800 C   0  0  0  0  0  0  0  0  0  0  0  0
  -11.3800   -3.0650    1.0860 C   0  0  0  0  0  0  0  0  0  0  0  0
  -11.2000   -3.8390    2.3880 C   0  0  0  0  0  0  0  0  0  0  0  0
  -10.9900   -5.0690    2.3420 N   0  0  0  0  0  0  0  0  0  0  0  0
  -12.7310   -2.7290    0.7330 N   0  0  0  0  0  0  0  0  0  0  0  0
  -12.9960   -1.9940   -0.4510 N   0  0  0  0  0  0  0  0  0  0  0  0
  -14.3580   -1.6940   -0.7530 C   0  0  0  0  0  0  0  0  0  0  0  0
  -15.0390   -0.7180   -0.0560 C   0  0  0  0  0  0  0  0  0  0  0  0
  -16.3510   -0.4690   -0.3980 C   0  0  0  0  0  0  0  0  0  0  0  0
  -16.9430   -1.2030   -1.4080 C   0  0  0  0  0  0  0  0  0  0  0  0
  -18.3840   -0.9560   -1.8060 C   0  0  0  0  0  0  0  0  0  0  0  0
  -16.2510   -2.1690   -2.1000 C   0  0  0  0  0  0  0  0  0  0  0  0
  -14.9490   -2.4160   -1.7590 C   0  0  0  0  0  0  0  0  0  0  0  0
  -11.9050   -1.5730   -1.3540 C   0  0  0  0  0  0  0  0  0  0  0  0
  -10.5280   -1.9050   -1.0240 N   0  0  0  0  0  0  0  0  0  0  0  0
   -9.4550   -1.4720   -1.9190 C   0  0  0  0  0  0  0  0  0  0  0  0
   -9.2820   -2.3940   -3.1270 C   0  0  0  0  0  0  0  0  0  0  0  0
   -7.8170   -2.5500   -3.5360 C   0  0  0  0  0  0  0  0  0  0  0  0
   -6.9720   -3.3210   -2.7550 C   0  0  0  0  0  0  0  0  0  0  0  0
   -5.6390   -3.4770   -3.1110 C   0  0  0  0  0  0  0  0  0  0  0  0
   -5.1940   -2.8390   -4.2640 C   0  0  0  0  0  0  0  0  0  0  0  0
   -6.0850   -2.0780   -5.0070 C   0  0  0  0  0  0  0  0  0  0  0  0
   -7.3470   -1.9600   -4.6270 N   0  0  0  0  0  0  0  0  0  0  0  0
  -12.1450   -0.9640   -2.3390 O   0  0  0  0  0  0  0  0  0  0  0  0
  -18.7610   -1.8760   -2.7390 F   0  0  0  0  0  0  0  0  0  0  0  0
  -18.4550    0.3250   -2.2750 F   0  0  0  0  0  0  0  0  0  0  0  0
  -19.1950   -1.1300   -0.7370 F   0  0  0  0  0  0  0  0  0  0  0  0
  -10.1467   -3.0903   -3.8357 C   0  0  0  0  0  0  0  0  0  0  0  0
  -10.1748   -2.6832   -3.5186 O   0  0  0  0  0  0  0  0  0  0  0  0
  -10.3765   -2.3268   -4.6334 C   0  0  0  0  0  0  0  0  0  0  0  0
   -9.2890   -3.4382   -2.5496 F   0  0  0  0  0  0  0  0  0  0  0  0
   -9.2100   -1.2763   -3.7253 F   0  0  0  0  0  0  0  0  0  0  0  0
  1  2  2  0
  2  3  1  0
  2 16  1  0
  3  4  1  0
  3  6  2  0
  4  5  1  0
  6  7  1  0
  7 15  1  0
  7  8  1  0
 11 12  1  0
 12 28  1  0
 12 27  1  0
 12 26  1  0
 15 16  1  0
 15 25  2  0
 16 17  1  0
 17 18  1  0
 18 19  1  0
 18 29  1  0
 29 30  1  0
 30 31  1  0
 29 32  1  0
 31 33  1  0
  8  9  2  0
  9 10  1  0
 10 11  2  0
 11 13  1  0
 13 14  2  0
 14  8  1  0
 19 20  2  0
 20 21  1  0
 21 22  2  0
 22 23  1  0
 23 24  2  0
 24 19  1  0
M  END

$$$$
No_314-gen_results_new/Mpro_new_generate_500/2024-01-19-21-58-56/
     RDKit          3D

 33 36  0  0  0  0  0  0  0  0999 V2000
   -9.1300   -2.9100    0.4520 O   0  0  0  0  0  0  0  0  0  0  0  0
  -10.2490   -2.6420    0.1800 C   0  0  0  0  0  0  0  0  0  0  0  0
  -11.3800   -3.0650    1.0860 C   0  0  0  0  0  0  0  0  0  0  0  0
  -11.2000   -3.8390    2.3880 C   0  0  0  0  0  0  0  0  0  0  0  0
  -10.9900   -5.0690    2.3420 N   0  0  0  0  0  0  0  0  0  0  0  0
  -12.7310   -2.7290    0.7330 N   0  0  0  0  0  0  0  0  0  0  0  0
  -12.9960   -1.9940   -0.4510 N   0  0  0  0  0  0  0  0  0  0  0  0
  -14.3580   -1.6940   -0.7530 C   0  0  0  0  0  0  0  0  0  0  0  0
  -15.0390   -0.7180   -0.0560 C   0  0  0  0  0  0  0  0  0  0  0  0
  -16.3510   -0.4690   -0.3980 C   0  0  0  0  0  0  0  0  0  0  0  0
  -16.9430   -1.2030   -1.4080 C   0  0  0  0  0  0  0  0  0  0  0  0
  -18.3840   -0.9560   -1.8060 C   0  0  0  0  0  0  0  0  0  0  0  0
  -16.2510   -2.1690   -2.1000 C   0  0  0  0  0  0  0  0  0  0  0  0
  -14.9490   -2.4160   -1.7590 C   0  0  0  0  0  0  0  0  0  0  0  0
  -11.9050   -1.5730   -1.3540 C   0  0  0  0  0  0  0  0  0  0  0  0
  -10.5280   -1.9050   -1.0240 N   0  0  0  0  0  0  0  0  0  0  0  0
   -9.4550   -1.4720   -1.9190 C   0  0  0  0  0  0  0  0  0  0  0  0
   -9.2820   -2.3940   -3.1270 C   0  0  0  0  0  0  0  0  0  0  0  0
   -7.8170   -2.5500   -3.5360 C   0  0  0  0  0  0  0  0  0  0  0  0
   -6.9720   -3.3210   -2.7550 C   0  0  0  0  0  0  0  0  0  0  0  0
   -5.6390   -3.4770   -3.1110 C   0  0  0  0  0  0  0  0  0  0  0  0
   -5.1940   -2.8390   -4.2640 C   0  0  0  0  0  0  0  0  0  0  0  0
   -6.0850   -2.0780   -5.0070 C   0  0  0  0  0  0  0  0  0  0  0  0
   -7.3470   -1.9600   -4.6270 N   0  0  0  0  0  0  0  0  0  0  0  0
  -12.1450   -0.9640   -2.3390 O   0  0  0  0  0  0  0  0  0  0  0  0
  -18.7610   -1.8760   -2.7390 F   0  0  0  0  0  0  0  0  0  0  0  0
  -18.4550    0.3250   -2.2750 F   0  0  0  0  0  0  0  0  0  0  0  0
  -19.1950   -1.1300   -0.7370 F   0  0  0  0  0  0  0  0  0  0  0  0
   -9.7920   -3.7475   -2.8656 C   0  0  0  0  0  0  0  0  0  0  0  0
  -10.1387   -2.0206   -4.2903 C   0  0  0  0  0  0  0  0  0  0  0  0
  -10.7383   -4.2958   -3.7467 C   0  0  0  0  0  0  0  0  0  0  0  0
  -11.0163   -2.9845   -4.4697 O   0  0  0  0  0  0  0  0  0  0  0  0
  -10.1110   -0.9286   -4.9204 O   0  0  0  0  0  0  0  0  0  0  0  0
  1  2  2  0
  2  3  1  0
  2 16  1  0
  3  4  1  0
  3  6  2  0
  4  5  1  0
  6  7  1  0
  7 15  1  0
  7  8  1  0
 11 12  1  0
 12 28  1  0
 12 27  1  0
 12 26  1  0
 15 16  1  0
 15 25  2  0
 16 17  1  0
 17 18  1  0
 18 19  1  0
 18 29  1  0
 18 30  1  0
 29 31  2  0
 30 32  1  0
 31 32  1  0
 30 33  2  0
  8  9  2  0
  9 10  1  0
 10 11  2  0
 11 13  1  0
 13 14  2  0
 14  8  1  0
 19 20  2  0
 20 21  1  0
 21 22  2  0
 22 23  1  0
 23 24  2  0
 24 19  1  0
M  END

$$$$
No_315-gen_results_new/Mpro_new_generate_500/2024-01-19-21-58-56/
     RDKit          3D

 34 36  0  0  0  0  0  0  0  0999 V2000
   -9.1300   -2.9100    0.4520 O   0  0  0  0  0  0  0  0  0  0  0  0
  -10.2490   -2.6420    0.1800 C   0  0  0  0  0  0  0  0  0  0  0  0
  -11.3800   -3.0650    1.0860 C   0  0  0  0  0  0  0  0  0  0  0  0
  -11.2000   -3.8390    2.3880 C   0  0  0  0  0  0  0  0  0  0  0  0
  -10.9900   -5.0690    2.3420 N   0  0  0  0  0  0  0  0  0  0  0  0
  -12.7310   -2.7290    0.7330 N   0  0  0  0  0  0  0  0  0  0  0  0
  -12.9960   -1.9940   -0.4510 N   0  0  0  0  0  0  0  0  0  0  0  0
  -14.3580   -1.6940   -0.7530 C   0  0  0  0  0  0  0  0  0  0  0  0
  -15.0390   -0.7180   -0.0560 C   0  0  0  0  0  0  0  0  0  0  0  0
  -16.3510   -0.4690   -0.3980 C   0  0  0  0  0  0  0  0  0  0  0  0
  -16.9430   -1.2030   -1.4080 C   0  0  0  0  0  0  0  0  0  0  0  0
  -18.3840   -0.9560   -1.8060 C   0  0  0  0  0  0  0  0  0  0  0  0
  -16.2510   -2.1690   -2.1000 C   0  0  0  0  0  0  0  0  0  0  0  0
  -14.9490   -2.4160   -1.7590 C   0  0  0  0  0  0  0  0  0  0  0  0
  -11.9050   -1.5730   -1.3540 C   0  0  0  0  0  0  0  0  0  0  0  0
  -10.5280   -1.9050   -1.0240 N   0  0  0  0  0  0  0  0  0  0  0  0
   -9.4550   -1.4720   -1.9190 C   0  0  0  0  0  0  0  0  0  0  0  0
   -9.2820   -2.3940   -3.1270 C   0  0  0  0  0  0  0  0  0  0  0  0
   -7.8170   -2.5500   -3.5360 C   0  0  0  0  0  0  0  0  0  0  0  0
   -6.9720   -3.3210   -2.7550 C   0  0  0  0  0  0  0  0  0  0  0  0
   -5.6390   -3.4770   -3.1110 C   0  0  0  0  0  0  0  0  0  0  0  0
   -5.1940   -2.8390   -4.2640 C   0  0  0  0  0  0  0  0  0  0  0  0
   -6.0850   -2.0780   -5.0070 C   0  0  0  0  0  0  0  0  0  0  0  0
   -7.3470   -1.9600   -4.6270 N   0  0  0  0  0  0  0  0  0  0  0  0
  -12.1450   -0.9640   -2.3390 O   0  0  0  0  0  0  0  0  0  0  0  0
  -18.7610   -1.8760   -2.7390 F   0  0  0  0  0  0  0  0  0  0  0  0
  -18.4550    0.3250   -2.2750 F   0  0  0  0  0  0  0  0  0  0  0  0
  -19.1950   -1.1300   -0.7370 F   0  0  0  0  0  0  0  0  0  0  0  0
   -9.7920   -3.7475   -2.8656 C   0  0  0  0  0  0  0  0  0  0  0  0
  -10.0268   -1.9037   -4.2201 F   0  0  0  0  0  0  0  0  0  0  0  0
   -9.7674   -4.7763   -4.0487 C   0  0  0  0  0  0  0  0  0  0  0  0
  -10.8597   -4.8318   -4.9247 C   0  0  0  0  0  0  0  0  0  0  0  0
  -12.2296   -4.8796   -4.5132 C   0  0  0  0  0  0  0  0  0  0  0  0
  -10.6933   -5.4445   -6.2992 C   0  0  0  0  0  0  0  0  0  0  0  0
  1  2  2  0
  2  3  1  0
  2 16  1  0
  3  4  1  0
  3  6  2  0
  4  5  1  0
  6  7  1  0
  7 15  1  0
  7  8  1  0
 11 12  1  0
 12 28  1  0
 12 27  1  0
 12 26  1  0
 15 16  1  0
 15 25  2  0
 16 17  1  0
 17 18  1  0
 18 19  1  0
 18 29  1  0
 18 30  1  0
 29 31  1  0
 31 32  1  0
 32 33  1  0
 32 34  1  0
  8  9  2  0
  9 10  1  0
 10 11  2  0
 11 13  1  0
 13 14  2  0
 14  8  1  0
 19 20  2  0
 20 21  1  0
 21 22  2  0
 22 23  1  0
 23 24  2  0
 24 19  1  0
M  END

$$$$
No_316-gen_results_new/Mpro_new_generate_500/2024-01-19-21-58-56/
     RDKit          3D

 33 35  0  0  0  0  0  0  0  0999 V2000
   -9.1300   -2.9100    0.4520 O   0  0  0  0  0  0  0  0  0  0  0  0
  -10.2490   -2.6420    0.1800 C   0  0  0  0  0  0  0  0  0  0  0  0
  -11.3800   -3.0650    1.0860 C   0  0  0  0  0  0  0  0  0  0  0  0
  -11.2000   -3.8390    2.3880 C   0  0  0  0  0  0  0  0  0  0  0  0
  -10.9900   -5.0690    2.3420 N   0  0  0  0  0  0  0  0  0  0  0  0
  -12.7310   -2.7290    0.7330 N   0  0  0  0  0  0  0  0  0  0  0  0
  -12.9960   -1.9940   -0.4510 N   0  0  0  0  0  0  0  0  0  0  0  0
  -14.3580   -1.6940   -0.7530 C   0  0  0  0  0  0  0  0  0  0  0  0
  -15.0390   -0.7180   -0.0560 C   0  0  0  0  0  0  0  0  0  0  0  0
  -16.3510   -0.4690   -0.3980 C   0  0  0  0  0  0  0  0  0  0  0  0
  -16.9430   -1.2030   -1.4080 C   0  0  0  0  0  0  0  0  0  0  0  0
  -18.3840   -0.9560   -1.8060 C   0  0  0  0  0  0  0  0  0  0  0  0
  -16.2510   -2.1690   -2.1000 C   0  0  0  0  0  0  0  0  0  0  0  0
  -14.9490   -2.4160   -1.7590 C   0  0  0  0  0  0  0  0  0  0  0  0
  -11.9050   -1.5730   -1.3540 C   0  0  0  0  0  0  0  0  0  0  0  0
  -10.5280   -1.9050   -1.0240 N   0  0  0  0  0  0  0  0  0  0  0  0
   -9.4550   -1.4720   -1.9190 C   0  0  0  0  0  0  0  0  0  0  0  0
   -9.2820   -2.3940   -3.1270 C   0  0  0  0  0  0  0  0  0  0  0  0
   -7.8170   -2.5500   -3.5360 C   0  0  0  0  0  0  0  0  0  0  0  0
   -6.9720   -3.3210   -2.7550 C   0  0  0  0  0  0  0  0  0  0  0  0
   -5.6390   -3.4770   -3.1110 C   0  0  0  0  0  0  0  0  0  0  0  0
   -5.1940   -2.8390   -4.2640 C   0  0  0  0  0  0  0  0  0  0  0  0
   -6.0850   -2.0780   -5.0070 C   0  0  0  0  0  0  0  0  0  0  0  0
   -7.3470   -1.9600   -4.6270 N   0  0  0  0  0  0  0  0  0  0  0  0
  -12.1450   -0.9640   -2.3390 O   0  0  0  0  0  0  0  0  0  0  0  0
  -18.7610   -1.8760   -2.7390 F   0  0  0  0  0  0  0  0  0  0  0  0
  -18.4550    0.3250   -2.2750 F   0  0  0  0  0  0  0  0  0  0  0  0
  -19.1950   -1.1300   -0.7370 F   0  0  0  0  0  0  0  0  0  0  0  0
  -10.0453   -2.0069   -4.3181 C   0  0  0  0  0  0  0  0  0  0  0  0
   -9.8476   -3.8948   -2.8015 C   0  0  0  0  0  0  0  0  0  0  0  0
  -10.1714   -4.7331   -3.9309 C   0  0  0  0  0  0  0  0  0  0  0  0
  -10.7318   -3.9946   -5.1407 C   0  0  0  0  0  0  0  0  0  0  0  0
  -11.4032   -4.8968   -6.1921 C   0  0  0  0  0  0  0  0  0  0  0  0
  1  2  2  0
  2  3  1  0
  2 16  1  0
  3  4  1  0
  3  6  2  0
  4  5  1  0
  6  7  1  0
  7 15  1  0
  7  8  1  0
 11 12  1  0
 12 28  1  0
 12 27  1  0
 12 26  1  0
 15 16  1  0
 15 25  2  0
 16 17  1  0
 17 18  1  0
 18 19  1  0
 18 29  1  0
 18 30  1  0
 30 31  2  3
 31 32  1  0
 32 33  1  0
  8  9  2  0
  9 10  1  0
 10 11  2  0
 11 13  1  0
 13 14  2  0
 14  8  1  0
 19 20  2  0
 20 21  1  0
 21 22  2  0
 22 23  1  0
 23 24  2  0
 24 19  1  0
M  END

$$$$
No_317-gen_results_new/Mpro_new_generate_500/2024-01-19-21-58-56/
     RDKit          3D

 33 35  0  0  0  0  0  0  0  0999 V2000
   -9.1300   -2.9100    0.4520 O   0  0  0  0  0  0  0  0  0  0  0  0
  -10.2490   -2.6420    0.1800 C   0  0  0  0  0  0  0  0  0  0  0  0
  -11.3800   -3.0650    1.0860 C   0  0  0  0  0  0  0  0  0  0  0  0
  -11.2000   -3.8390    2.3880 C   0  0  0  0  0  0  0  0  0  0  0  0
  -10.9900   -5.0690    2.3420 N   0  0  0  0  0  0  0  0  0  0  0  0
  -12.7310   -2.7290    0.7330 N   0  0  0  0  0  0  0  0  0  0  0  0
  -12.9960   -1.9940   -0.4510 N   0  0  0  0  0  0  0  0  0  0  0  0
  -14.3580   -1.6940   -0.7530 C   0  0  0  0  0  0  0  0  0  0  0  0
  -15.0390   -0.7180   -0.0560 C   0  0  0  0  0  0  0  0  0  0  0  0
  -16.3510   -0.4690   -0.3980 C   0  0  0  0  0  0  0  0  0  0  0  0
  -16.9430   -1.2030   -1.4080 C   0  0  0  0  0  0  0  0  0  0  0  0
  -18.3840   -0.9560   -1.8060 C   0  0  0  0  0  0  0  0  0  0  0  0
  -16.2510   -2.1690   -2.1000 C   0  0  0  0  0  0  0  0  0  0  0  0
  -14.9490   -2.4160   -1.7590 C   0  0  0  0  0  0  0  0  0  0  0  0
  -11.9050   -1.5730   -1.3540 C   0  0  0  0  0  0  0  0  0  0  0  0
  -10.5280   -1.9050   -1.0240 N   0  0  0  0  0  0  0  0  0  0  0  0
   -9.4550   -1.4720   -1.9190 C   0  0  0  0  0  0  0  0  0  0  0  0
   -9.2820   -2.3940   -3.1270 C   0  0  0  0  0  0  0  0  0  0  0  0
   -7.8170   -2.5500   -3.5360 C   0  0  0  0  0  0  0  0  0  0  0  0
   -6.9720   -3.3210   -2.7550 C   0  0  0  0  0  0  0  0  0  0  0  0
   -5.6390   -3.4770   -3.1110 C   0  0  0  0  0  0  0  0  0  0  0  0
   -5.1940   -2.8390   -4.2640 C   0  0  0  0  0  0  0  0  0  0  0  0
   -6.0850   -2.0780   -5.0070 C   0  0  0  0  0  0  0  0  0  0  0  0
   -7.3470   -1.9600   -4.6270 N   0  0  0  0  0  0  0  0  0  0  0  0
  -12.1450   -0.9640   -2.3390 O   0  0  0  0  0  0  0  0  0  0  0  0
  -18.7610   -1.8760   -2.7390 F   0  0  0  0  0  0  0  0  0  0  0  0
  -18.4550    0.3250   -2.2750 F   0  0  0  0  0  0  0  0  0  0  0  0
  -19.1950   -1.1300   -0.7370 F   0  0  0  0  0  0  0  0  0  0  0  0
  -10.1467   -3.0903   -3.8357 C   0  0  0  0  0  0  0  0  0  0  0  0
  -10.1681   -2.5855   -3.6007 C   0  0  0  0  0  0  0  0  0  0  0  0
  -11.3308   -2.7701   -3.8546 C   0  0  0  0  0  0  0  0  0  0  0  0
  -10.2479   -1.8545   -4.7710 F   0  0  0  0  0  0  0  0  0  0  0  0
  -10.6018   -2.0809   -2.7786 F   0  0  0  0  0  0  0  0  0  0  0  0
  1  2  2  0
  2  3  1  0
  2 16  1  0
  3  4  1  0
  3  6  2  0
  4  5  1  0
  6  7  1  0
  7 15  1  0
  7  8  1  0
 11 12  1  0
 12 28  1  0
 12 27  1  0
 12 26  1  0
 15 16  1  0
 15 25  2  0
 16 17  1  0
 17 18  1  0
 18 19  1  0
 18 29  1  0
 29 30  1  0
 30 31  2  3
 31 32  1  0
 30 33  1  0
  8  9  2  0
  9 10  1  0
 10 11  2  0
 11 13  1  0
 13 14  2  0
 14  8  1  0
 19 20  2  0
 20 21  1  0
 21 22  2  0
 22 23  1  0
 23 24  2  0
 24 19  1  0
M  END

$$$$
No_318-gen_results_new/Mpro_new_generate_500/2024-01-19-21-58-56/
     RDKit          3D

 35 37  0  0  0  0  0  0  0  0999 V2000
   -9.1300   -2.9100    0.4520 O   0  0  0  0  0  0  0  0  0  0  0  0
  -10.2490   -2.6420    0.1800 C   0  0  0  0  0  0  0  0  0  0  0  0
  -11.3800   -3.0650    1.0860 C   0  0  0  0  0  0  0  0  0  0  0  0
  -11.2000   -3.8390    2.3880 C   0  0  0  0  0  0  0  0  0  0  0  0
  -10.9900   -5.0690    2.3420 N   0  0  0  0  0  0  0  0  0  0  0  0
  -12.7310   -2.7290    0.7330 N   0  0  0  0  0  0  0  0  0  0  0  0
  -12.9960   -1.9940   -0.4510 N   0  0  0  0  0  0  0  0  0  0  0  0
  -14.3580   -1.6940   -0.7530 C   0  0  0  0  0  0  0  0  0  0  0  0
  -15.0390   -0.7180   -0.0560 C   0  0  0  0  0  0  0  0  0  0  0  0
  -16.3510   -0.4690   -0.3980 C   0  0  0  0  0  0  0  0  0  0  0  0
  -16.9430   -1.2030   -1.4080 C   0  0  0  0  0  0  0  0  0  0  0  0
  -18.3840   -0.9560   -1.8060 C   0  0  0  0  0  0  0  0  0  0  0  0
  -16.2510   -2.1690   -2.1000 C   0  0  0  0  0  0  0  0  0  0  0  0
  -14.9490   -2.4160   -1.7590 C   0  0  0  0  0  0  0  0  0  0  0  0
  -11.9050   -1.5730   -1.3540 C   0  0  0  0  0  0  0  0  0  0  0  0
  -10.5280   -1.9050   -1.0240 N   0  0  0  0  0  0  0  0  0  0  0  0
   -9.4550   -1.4720   -1.9190 C   0  0  0  0  0  0  0  0  0  0  0  0
   -9.2820   -2.3940   -3.1270 C   0  0  0  0  0  0  0  0  0  0  0  0
   -7.8170   -2.5500   -3.5360 C   0  0  0  0  0  0  0  0  0  0  0  0
   -6.9720   -3.3210   -2.7550 C   0  0  0  0  0  0  0  0  0  0  0  0
   -5.6390   -3.4770   -3.1110 C   0  0  0  0  0  0  0  0  0  0  0  0
   -5.1940   -2.8390   -4.2640 C   0  0  0  0  0  0  0  0  0  0  0  0
   -6.0850   -2.0780   -5.0070 C   0  0  0  0  0  0  0  0  0  0  0  0
   -7.3470   -1.9600   -4.6270 N   0  0  0  0  0  0  0  0  0  0  0  0
  -12.1450   -0.9640   -2.3390 O   0  0  0  0  0  0  0  0  0  0  0  0
  -18.7610   -1.8760   -2.7390 F   0  0  0  0  0  0  0  0  0  0  0  0
  -18.4550    0.3250   -2.2750 F   0  0  0  0  0  0  0  0  0  0  0  0
  -19.1950   -1.1300   -0.7370 F   0  0  0  0  0  0  0  0  0  0  0  0
   -9.7920   -3.7475   -2.8656 C   0  0  0  0  0  0  0  0  0  0  0  0
   -9.9778   -1.5944   -4.2803 C   0  0  0  0  0  0  0  0  0  0  0  0
   -9.9974   -4.6360   -4.1639 C   0  0  0  0  0  0  0  0  0  0  0  0
  -11.3227   -3.7636   -2.4518 C   0  0  0  0  0  0  0  0  0  0  0  0
  -11.9922   -5.3001   -2.5763 C   0  0  0  0  0  0  0  0  0  0  0  0
  -12.3627   -5.4846   -1.1896 C   0  0  0  0  0  0  0  0  0  0  0  0
  -11.9253   -3.5180   -3.8301 C   0  0  0  0  0  0  0  0  0  0  0  0
  1  2  2  0
  2  3  1  0
  2 16  1  0
  3  4  1  0
  3  6  2  0
  4  5  1  0
  6  7  1  0
  7 15  1  0
  7  8  1  0
 11 12  1  0
 12 28  1  0
 12 27  1  0
 12 26  1  0
 15 16  1  0
 15 25  2  0
 16 17  1  0
 17 18  1  0
 18 19  1  0
 18 29  1  0
 18 30  1  0
 29 31  1  0
 29 32  1  0
 32 33  1  0
 33 34  1  0
 32 35  1  0
  8  9  2  0
  9 10  1  0
 10 11  2  0
 11 13  1  0
 13 14  2  0
 14  8  1  0
 19 20  2  0
 20 21  1  0
 21 22  2  0
 22 23  1  0
 23 24  2  0
 24 19  1  0
M  END

$$$$
No_319-gen_results_new/Mpro_new_generate_500/2024-01-19-21-58-56/
     RDKit          3D

 33 35  0  0  0  0  0  0  0  0999 V2000
   -9.1300   -2.9100    0.4520 O   0  0  0  0  0  0  0  0  0  0  0  0
  -10.2490   -2.6420    0.1800 C   0  0  0  0  0  0  0  0  0  0  0  0
  -11.3800   -3.0650    1.0860 C   0  0  0  0  0  0  0  0  0  0  0  0
  -11.2000   -3.8390    2.3880 C   0  0  0  0  0  0  0  0  0  0  0  0
  -10.9900   -5.0690    2.3420 N   0  0  0  0  0  0  0  0  0  0  0  0
  -12.7310   -2.7290    0.7330 N   0  0  0  0  0  0  0  0  0  0  0  0
  -12.9960   -1.9940   -0.4510 N   0  0  0  0  0  0  0  0  0  0  0  0
  -14.3580   -1.6940   -0.7530 C   0  0  0  0  0  0  0  0  0  0  0  0
  -15.0390   -0.7180   -0.0560 C   0  0  0  0  0  0  0  0  0  0  0  0
  -16.3510   -0.4690   -0.3980 C   0  0  0  0  0  0  0  0  0  0  0  0
  -16.9430   -1.2030   -1.4080 C   0  0  0  0  0  0  0  0  0  0  0  0
  -18.3840   -0.9560   -1.8060 C   0  0  0  0  0  0  0  0  0  0  0  0
  -16.2510   -2.1690   -2.1000 C   0  0  0  0  0  0  0  0  0  0  0  0
  -14.9490   -2.4160   -1.7590 C   0  0  0  0  0  0  0  0  0  0  0  0
  -11.9050   -1.5730   -1.3540 C   0  0  0  0  0  0  0  0  0  0  0  0
  -10.5280   -1.9050   -1.0240 N   0  0  0  0  0  0  0  0  0  0  0  0
   -9.4550   -1.4720   -1.9190 C   0  0  0  0  0  0  0  0  0  0  0  0
   -9.2820   -2.3940   -3.1270 C   0  0  0  0  0  0  0  0  0  0  0  0
   -7.8170   -2.5500   -3.5360 C   0  0  0  0  0  0  0  0  0  0  0  0
   -6.9720   -3.3210   -2.7550 C   0  0  0  0  0  0  0  0  0  0  0  0
   -5.6390   -3.4770   -3.1110 C   0  0  0  0  0  0  0  0  0  0  0  0
   -5.1940   -2.8390   -4.2640 C   0  0  0  0  0  0  0  0  0  0  0  0
   -6.0850   -2.0780   -5.0070 C   0  0  0  0  0  0  0  0  0  0  0  0
   -7.3470   -1.9600   -4.6270 N   0  0  0  0  0  0  0  0  0  0  0  0
  -12.1450   -0.9640   -2.3390 O   0  0  0  0  0  0  0  0  0  0  0  0
  -18.7610   -1.8760   -2.7390 F   0  0  0  0  0  0  0  0  0  0  0  0
  -18.4550    0.3250   -2.2750 F   0  0  0  0  0  0  0  0  0  0  0  0
  -19.1950   -1.1300   -0.7370 F   0  0  0  0  0  0  0  0  0  0  0  0
   -9.9397   -3.9796   -2.9011 S   0  0  0  0  0  0  0  0  0  0  0  0
  -11.2830   -3.8661   -4.0489 C   0  0  0  0  0  0  0  0  0  0  0  0
   -9.7588   -5.0047   -2.2787 O   0  0  0  0  0  0  0  0  0  0  0  0
   -9.7176   -5.0716   -3.0988 O   0  0  0  0  0  0  0  0  0  0  0  0
  -10.3114   -6.1336   -2.9649 C   0  0  0  0  0  0  0  0  0  0  0  0
  1  2  2  0
  2  3  1  0
  2 16  1  0
  3  4  1  0
  3  6  2  0
  4  5  1  0
  6  7  1  0
  7 15  1  0
  7  8  1  0
 11 12  1  0
 12 28  1  0
 12 27  1  0
 12 26  1  0
 15 16  1  0
 15 25  2  0
 16 17  1  0
 17 18  1  0
 18 19  1  0
 18 29  1  0
 29 30  1  0
 29 31  2  0
 29 32  1  0
 32 33  1  0
  8  9  2  0
  9 10  1  0
 10 11  2  0
 11 13  1  0
 13 14  2  0
 14  8  1  0
 19 20  2  0
 20 21  1  0
 21 22  2  0
 22 23  1  0
 23 24  2  0
 24 19  1  0
M  END

$$$$
No_320-gen_results_new/Mpro_new_generate_500/2024-01-19-21-58-56/
     RDKit          3D

 33 35  0  0  0  0  0  0  0  0999 V2000
   -9.1300   -2.9100    0.4520 O   0  0  0  0  0  0  0  0  0  0  0  0
  -10.2490   -2.6420    0.1800 C   0  0  0  0  0  0  0  0  0  0  0  0
  -11.3800   -3.0650    1.0860 C   0  0  0  0  0  0  0  0  0  0  0  0
  -11.2000   -3.8390    2.3880 C   0  0  0  0  0  0  0  0  0  0  0  0
  -10.9900   -5.0690    2.3420 N   0  0  0  0  0  0  0  0  0  0  0  0
  -12.7310   -2.7290    0.7330 N   0  0  0  0  0  0  0  0  0  0  0  0
  -12.9960   -1.9940   -0.4510 N   0  0  0  0  0  0  0  0  0  0  0  0
  -14.3580   -1.6940   -0.7530 C   0  0  0  0  0  0  0  0  0  0  0  0
  -15.0390   -0.7180   -0.0560 C   0  0  0  0  0  0  0  0  0  0  0  0
  -16.3510   -0.4690   -0.3980 C   0  0  0  0  0  0  0  0  0  0  0  0
  -16.9430   -1.2030   -1.4080 C   0  0  0  0  0  0  0  0  0  0  0  0
  -18.3840   -0.9560   -1.8060 C   0  0  0  0  0  0  0  0  0  0  0  0
  -16.2510   -2.1690   -2.1000 C   0  0  0  0  0  0  0  0  0  0  0  0
  -14.9490   -2.4160   -1.7590 C   0  0  0  0  0  0  0  0  0  0  0  0
  -11.9050   -1.5730   -1.3540 C   0  0  0  0  0  0  0  0  0  0  0  0
  -10.5280   -1.9050   -1.0240 N   0  0  0  0  0  0  0  0  0  0  0  0
   -9.4550   -1.4720   -1.9190 C   0  0  0  0  0  0  0  0  0  0  0  0
   -9.2820   -2.3940   -3.1270 C   0  0  0  0  0  0  0  0  0  0  0  0
   -7.8170   -2.5500   -3.5360 C   0  0  0  0  0  0  0  0  0  0  0  0
   -6.9720   -3.3210   -2.7550 C   0  0  0  0  0  0  0  0  0  0  0  0
   -5.6390   -3.4770   -3.1110 C   0  0  0  0  0  0  0  0  0  0  0  0
   -5.1940   -2.8390   -4.2640 C   0  0  0  0  0  0  0  0  0  0  0  0
   -6.0850   -2.0780   -5.0070 C   0  0  0  0  0  0  0  0  0  0  0  0
   -7.3470   -1.9600   -4.6270 N   0  0  0  0  0  0  0  0  0  0  0  0
  -12.1450   -0.9640   -2.3390 O   0  0  0  0  0  0  0  0  0  0  0  0
  -18.7610   -1.8760   -2.7390 F   0  0  0  0  0  0  0  0  0  0  0  0
  -18.4550    0.3250   -2.2750 F   0  0  0  0  0  0  0  0  0  0  0  0
  -19.1950   -1.1300   -0.7370 F   0  0  0  0  0  0  0  0  0  0  0  0
   -9.7920   -3.7475   -2.8656 C   0  0  0  0  0  0  0  0  0  0  0  0
  -10.0268   -1.9037   -4.2201 F   0  0  0  0  0  0  0  0  0  0  0  0
   -9.3895   -4.4908   -1.8388 F   0  0  0  0  0  0  0  0  0  0  0  0
   -9.8926   -4.6940   -4.0554 C   0  0  0  0  0  0  0  0  0  0  0  0
  -10.5861   -3.9111   -1.8978 F   0  0  0  0  0  0  0  0  0  0  0  0
  1  2  2  0
  2  3  1  0
  2 16  1  0
  3  4  1  0
  3  6  2  0
  4  5  1  0
  6  7  1  0
  7 15  1  0
  7  8  1  0
 11 12  1  0
 12 28  1  0
 12 27  1  0
 12 26  1  0
 15 16  1  0
 15 25  2  0
 16 17  1  0
 17 18  1  0
 18 19  1  0
 18 29  1  0
 18 30  1  0
 29 31  1  0
 29 32  1  0
 29 33  1  0
  8  9  2  0
  9 10  1  0
 10 11  2  0
 11 13  1  0
 13 14  2  0
 14  8  1  0
 19 20  2  0
 20 21  1  0
 21 22  2  0
 22 23  1  0
 23 24  2  0
 24 19  1  0
M  END

$$$$
No_321-gen_results_new/Mpro_new_generate_500/2024-01-19-21-58-56/
     RDKit          3D

 34 37  0  0  0  0  0  0  0  0999 V2000
   -9.1300   -2.9100    0.4520 O   0  0  0  0  0  0  0  0  0  0  0  0
  -10.2490   -2.6420    0.1800 C   0  0  0  0  0  0  0  0  0  0  0  0
  -11.3800   -3.0650    1.0860 C   0  0  0  0  0  0  0  0  0  0  0  0
  -11.2000   -3.8390    2.3880 C   0  0  0  0  0  0  0  0  0  0  0  0
  -10.9900   -5.0690    2.3420 N   0  0  0  0  0  0  0  0  0  0  0  0
  -12.7310   -2.7290    0.7330 N   0  0  0  0  0  0  0  0  0  0  0  0
  -12.9960   -1.9940   -0.4510 N   0  0  0  0  0  0  0  0  0  0  0  0
  -14.3580   -1.6940   -0.7530 C   0  0  0  0  0  0  0  0  0  0  0  0
  -15.0390   -0.7180   -0.0560 C   0  0  0  0  0  0  0  0  0  0  0  0
  -16.3510   -0.4690   -0.3980 C   0  0  0  0  0  0  0  0  0  0  0  0
  -16.9430   -1.2030   -1.4080 C   0  0  0  0  0  0  0  0  0  0  0  0
  -18.3840   -0.9560   -1.8060 C   0  0  0  0  0  0  0  0  0  0  0  0
  -16.2510   -2.1690   -2.1000 C   0  0  0  0  0  0  0  0  0  0  0  0
  -14.9490   -2.4160   -1.7590 C   0  0  0  0  0  0  0  0  0  0  0  0
  -11.9050   -1.5730   -1.3540 C   0  0  0  0  0  0  0  0  0  0  0  0
  -10.5280   -1.9050   -1.0240 N   0  0  0  0  0  0  0  0  0  0  0  0
   -9.4550   -1.4720   -1.9190 C   0  0  0  0  0  0  0  0  0  0  0  0
   -9.2820   -2.3940   -3.1270 C   0  0  0  0  0  0  0  0  0  0  0  0
   -7.8170   -2.5500   -3.5360 C   0  0  0  0  0  0  0  0  0  0  0  0
   -6.9720   -3.3210   -2.7550 C   0  0  0  0  0  0  0  0  0  0  0  0
   -5.6390   -3.4770   -3.1110 C   0  0  0  0  0  0  0  0  0  0  0  0
   -5.1940   -2.8390   -4.2640 C   0  0  0  0  0  0  0  0  0  0  0  0
   -6.0850   -2.0780   -5.0070 C   0  0  0  0  0  0  0  0  0  0  0  0
   -7.3470   -1.9600   -4.6270 N   0  0  0  0  0  0  0  0  0  0  0  0
  -12.1450   -0.9640   -2.3390 O   0  0  0  0  0  0  0  0  0  0  0  0
  -18.7610   -1.8760   -2.7390 F   0  0  0  0  0  0  0  0  0  0  0  0
  -18.4550    0.3250   -2.2750 F   0  0  0  0  0  0  0  0  0  0  0  0
  -19.1950   -1.1300   -0.7370 F   0  0  0  0  0  0  0  0  0  0  0  0
   -9.7920   -3.7475   -2.8656 C   0  0  0  0  0  0  0  0  0  0  0  0
  -10.1387   -2.0206   -4.2903 C   0  0  0  0  0  0  0  0  0  0  0  0
  -10.7383   -4.2958   -3.7467 C   0  0  0  0  0  0  0  0  0  0  0  0
  -11.0559   -3.0145   -4.5101 C   0  0  0  0  0  0  0  0  0  0  0  0
  -10.0387   -0.7950   -4.7663 O   0  0  0  0  0  0  0  0  0  0  0  0
  -11.4266   -5.3577   -3.8658 F   0  0  0  0  0  0  0  0  0  0  0  0
  1  2  2  0
  2  3  1  0
  2 16  1  0
  3  4  1  0
  3  6  2  0
  4  5  1  0
  6  7  1  0
  7 15  1  0
  7  8  1  0
 11 12  1  0
 12 28  1  0
 12 27  1  0
 12 26  1  0
 15 16  1  0
 15 25  2  0
 16 17  1  0
 17 18  1  0
 18 19  1  0
 18 29  1  0
 18 30  1  0
 29 31  2  0
 30 32  1  0
 31 32  1  0
 30 33  2  0
 31 34  1  0
  8  9  2  0
  9 10  1  0
 10 11  2  0
 11 13  1  0
 13 14  2  0
 14  8  1  0
 19 20  2  0
 20 21  1  0
 21 22  2  0
 22 23  1  0
 23 24  2  0
 24 19  1  0
M  END

$$$$
No_322-gen_results_new/Mpro_new_generate_500/2024-01-19-21-58-56/
     RDKit          3D

 35 38  0  0  0  0  0  0  0  0999 V2000
   -9.1300   -2.9100    0.4520 O   0  0  0  0  0  0  0  0  0  0  0  0
  -10.2490   -2.6420    0.1800 C   0  0  0  0  0  0  0  0  0  0  0  0
  -11.3800   -3.0650    1.0860 C   0  0  0  0  0  0  0  0  0  0  0  0
  -11.2000   -3.8390    2.3880 C   0  0  0  0  0  0  0  0  0  0  0  0
  -10.9900   -5.0690    2.3420 N   0  0  0  0  0  0  0  0  0  0  0  0
  -12.7310   -2.7290    0.7330 N   0  0  0  0  0  0  0  0  0  0  0  0
  -12.9960   -1.9940   -0.4510 N   0  0  0  0  0  0  0  0  0  0  0  0
  -14.3580   -1.6940   -0.7530 C   0  0  0  0  0  0  0  0  0  0  0  0
  -15.0390   -0.7180   -0.0560 C   0  0  0  0  0  0  0  0  0  0  0  0
  -16.3510   -0.4690   -0.3980 C   0  0  0  0  0  0  0  0  0  0  0  0
  -16.9430   -1.2030   -1.4080 C   0  0  0  0  0  0  0  0  0  0  0  0
  -18.3840   -0.9560   -1.8060 C   0  0  0  0  0  0  0  0  0  0  0  0
  -16.2510   -2.1690   -2.1000 C   0  0  0  0  0  0  0  0  0  0  0  0
  -14.9490   -2.4160   -1.7590 C   0  0  0  0  0  0  0  0  0  0  0  0
  -11.9050   -1.5730   -1.3540 C   0  0  0  0  0  0  0  0  0  0  0  0
  -10.5280   -1.9050   -1.0240 N   0  0  0  0  0  0  0  0  0  0  0  0
   -9.4550   -1.4720   -1.9190 C   0  0  0  0  0  0  0  0  0  0  0  0
   -9.2820   -2.3940   -3.1270 C   0  0  0  0  0  0  0  0  0  0  0  0
   -7.8170   -2.5500   -3.5360 C   0  0  0  0  0  0  0  0  0  0  0  0
   -6.9720   -3.3210   -2.7550 C   0  0  0  0  0  0  0  0  0  0  0  0
   -5.6390   -3.4770   -3.1110 C   0  0  0  0  0  0  0  0  0  0  0  0
   -5.1940   -2.8390   -4.2640 C   0  0  0  0  0  0  0  0  0  0  0  0
   -6.0850   -2.0780   -5.0070 C   0  0  0  0  0  0  0  0  0  0  0  0
   -7.3470   -1.9600   -4.6270 N   0  0  0  0  0  0  0  0  0  0  0  0
  -12.1450   -0.9640   -2.3390 O   0  0  0  0  0  0  0  0  0  0  0  0
  -18.7610   -1.8760   -2.7390 F   0  0  0  0  0  0  0  0  0  0  0  0
  -18.4550    0.3250   -2.2750 F   0  0  0  0  0  0  0  0  0  0  0  0
  -19.1950   -1.1300   -0.7370 F   0  0  0  0  0  0  0  0  0  0  0  0
  -10.0453   -2.0069   -4.3181 C   0  0  0  0  0  0  0  0  0  0  0  0
   -9.8903   -3.8143   -2.9484 C   0  0  0  0  0  0  0  0  0  0  0  0
  -10.8021   -4.2389   -3.8324 C   0  0  0  0  0  0  0  0  0  0  0  0
  -10.9882   -2.8968   -4.5222 O   0  0  0  0  0  0  0  0  0  0  0  0
  -12.0523   -4.7039   -3.4222 F   0  0  0  0  0  0  0  0  0  0  0  0
  -10.3396   -5.2829   -4.8751 C   0  0  0  0  0  0  0  0  0  0  0  0
  -10.0411   -0.9366   -4.8646 O   0  0  0  0  0  0  0  0  0  0  0  0
  1  2  2  0
  2  3  1  0
  2 16  1  0
  3  4  1  0
  3  6  2  0
  4  5  1  0
  6  7  1  0
  7 15  1  0
  7  8  1  0
 11 12  1  0
 12 28  1  0
 12 27  1  0
 12 26  1  0
 15 16  1  0
 15 25  2  0
 16 17  1  0
 17 18  1  0
 18 19  1  0
 18 29  1  0
 18 30  1  0
 30 31  1  0
 29 32  1  0
 31 32  1  0
 31 33  1  0
 31 34  1  0
 29 35  2  0
  8  9  2  0
  9 10  1  0
 10 11  2  0
 11 13  1  0
 13 14  2  0
 14  8  1  0
 19 20  2  0
 20 21  1  0
 21 22  2  0
 22 23  1  0
 23 24  2  0
 24 19  1  0
M  END

$$$$
No_323-gen_results_new/Mpro_new_generate_500/2024-01-19-21-58-56/
     RDKit          3D

 33 35  0  0  0  0  0  0  0  0999 V2000
   -9.1300   -2.9100    0.4520 O   0  0  0  0  0  0  0  0  0  0  0  0
  -10.2490   -2.6420    0.1800 C   0  0  0  0  0  0  0  0  0  0  0  0
  -11.3800   -3.0650    1.0860 C   0  0  0  0  0  0  0  0  0  0  0  0
  -11.2000   -3.8390    2.3880 C   0  0  0  0  0  0  0  0  0  0  0  0
  -10.9900   -5.0690    2.3420 N   0  0  0  0  0  0  0  0  0  0  0  0
  -12.7310   -2.7290    0.7330 N   0  0  0  0  0  0  0  0  0  0  0  0
  -12.9960   -1.9940   -0.4510 N   0  0  0  0  0  0  0  0  0  0  0  0
  -14.3580   -1.6940   -0.7530 C   0  0  0  0  0  0  0  0  0  0  0  0
  -15.0390   -0.7180   -0.0560 C   0  0  0  0  0  0  0  0  0  0  0  0
  -16.3510   -0.4690   -0.3980 C   0  0  0  0  0  0  0  0  0  0  0  0
  -16.9430   -1.2030   -1.4080 C   0  0  0  0  0  0  0  0  0  0  0  0
  -18.3840   -0.9560   -1.8060 C   0  0  0  0  0  0  0  0  0  0  0  0
  -16.2510   -2.1690   -2.1000 C   0  0  0  0  0  0  0  0  0  0  0  0
  -14.9490   -2.4160   -1.7590 C   0  0  0  0  0  0  0  0  0  0  0  0
  -11.9050   -1.5730   -1.3540 C   0  0  0  0  0  0  0  0  0  0  0  0
  -10.5280   -1.9050   -1.0240 N   0  0  0  0  0  0  0  0  0  0  0  0
   -9.4550   -1.4720   -1.9190 C   0  0  0  0  0  0  0  0  0  0  0  0
   -9.2820   -2.3940   -3.1270 C   0  0  0  0  0  0  0  0  0  0  0  0
   -7.8170   -2.5500   -3.5360 C   0  0  0  0  0  0  0  0  0  0  0  0
   -6.9720   -3.3210   -2.7550 C   0  0  0  0  0  0  0  0  0  0  0  0
   -5.6390   -3.4770   -3.1110 C   0  0  0  0  0  0  0  0  0  0  0  0
   -5.1940   -2.8390   -4.2640 C   0  0  0  0  0  0  0  0  0  0  0  0
   -6.0850   -2.0780   -5.0070 C   0  0  0  0  0  0  0  0  0  0  0  0
   -7.3470   -1.9600   -4.6270 N   0  0  0  0  0  0  0  0  0  0  0  0
  -12.1450   -0.9640   -2.3390 O   0  0  0  0  0  0  0  0  0  0  0  0
  -18.7610   -1.8760   -2.7390 F   0  0  0  0  0  0  0  0  0  0  0  0
  -18.4550    0.3250   -2.2750 F   0  0  0  0  0  0  0  0  0  0  0  0
  -19.1950   -1.1300   -0.7370 F   0  0  0  0  0  0  0  0  0  0  0  0
  -10.1467   -3.0903   -3.8357 C   0  0  0  0  0  0  0  0  0  0  0  0
  -10.3179   -2.6325   -3.8272 S   0  0  0  0  0  0  0  0  0  0  0  0
  -10.2732   -2.1400   -5.5590 C   0  0  0  0  0  0  0  0  0  0  0  0
  -11.8610   -2.5882   -3.5493 O   0  0  0  0  0  0  0  0  0  0  0  0
  -10.2463   -1.5629   -3.7923 O   0  0  0  0  0  0  0  0  0  0  0  0
  1  2  2  0
  2  3  1  0
  2 16  1  0
  3  4  1  0
  3  6  2  0
  4  5  1  0
  6  7  1  0
  7 15  1  0
  7  8  1  0
 11 12  1  0
 12 28  1  0
 12 27  1  0
 12 26  1  0
 15 16  1  0
 15 25  2  0
 16 17  1  0
 17 18  1  0
 18 19  1  0
 18 29  1  0
 29 30  1  0
 30 31  1  0
 30 32  2  0
 30 33  2  0
  8  9  2  0
  9 10  1  0
 10 11  2  0
 11 13  1  0
 13 14  2  0
 14  8  1  0
 19 20  2  0
 20 21  1  0
 21 22  2  0
 22 23  1  0
 23 24  2  0
 24 19  1  0
M  END

$$$$
No_324-gen_results_new/Mpro_new_generate_500/2024-01-19-21-58-56/
     RDKit          3D

 35 38  0  0  0  0  0  0  0  0999 V2000
   -9.1300   -2.9100    0.4520 O   0  0  0  0  0  0  0  0  0  0  0  0
  -10.2490   -2.6420    0.1800 C   0  0  0  0  0  0  0  0  0  0  0  0
  -11.3800   -3.0650    1.0860 C   0  0  0  0  0  0  0  0  0  0  0  0
  -11.2000   -3.8390    2.3880 C   0  0  0  0  0  0  0  0  0  0  0  0
  -10.9900   -5.0690    2.3420 N   0  0  0  0  0  0  0  0  0  0  0  0
  -12.7310   -2.7290    0.7330 N   0  0  0  0  0  0  0  0  0  0  0  0
  -12.9960   -1.9940   -0.4510 N   0  0  0  0  0  0  0  0  0  0  0  0
  -14.3580   -1.6940   -0.7530 C   0  0  0  0  0  0  0  0  0  0  0  0
  -15.0390   -0.7180   -0.0560 C   0  0  0  0  0  0  0  0  0  0  0  0
  -16.3510   -0.4690   -0.3980 C   0  0  0  0  0  0  0  0  0  0  0  0
  -16.9430   -1.2030   -1.4080 C   0  0  0  0  0  0  0  0  0  0  0  0
  -18.3840   -0.9560   -1.8060 C   0  0  0  0  0  0  0  0  0  0  0  0
  -16.2510   -2.1690   -2.1000 C   0  0  0  0  0  0  0  0  0  0  0  0
  -14.9490   -2.4160   -1.7590 C   0  0  0  0  0  0  0  0  0  0  0  0
  -11.9050   -1.5730   -1.3540 C   0  0  0  0  0  0  0  0  0  0  0  0
  -10.5280   -1.9050   -1.0240 N   0  0  0  0  0  0  0  0  0  0  0  0
   -9.4550   -1.4720   -1.9190 C   0  0  0  0  0  0  0  0  0  0  0  0
   -9.2820   -2.3940   -3.1270 C   0  0  0  0  0  0  0  0  0  0  0  0
   -7.8170   -2.5500   -3.5360 C   0  0  0  0  0  0  0  0  0  0  0  0
   -6.9720   -3.3210   -2.7550 C   0  0  0  0  0  0  0  0  0  0  0  0
   -5.6390   -3.4770   -3.1110 C   0  0  0  0  0  0  0  0  0  0  0  0
   -5.1940   -2.8390   -4.2640 C   0  0  0  0  0  0  0  0  0  0  0  0
   -6.0850   -2.0780   -5.0070 C   0  0  0  0  0  0  0  0  0  0  0  0
   -7.3470   -1.9600   -4.6270 N   0  0  0  0  0  0  0  0  0  0  0  0
  -12.1450   -0.9640   -2.3390 O   0  0  0  0  0  0  0  0  0  0  0  0
  -18.7610   -1.8760   -2.7390 F   0  0  0  0  0  0  0  0  0  0  0  0
  -18.4550    0.3250   -2.2750 F   0  0  0  0  0  0  0  0  0  0  0  0
  -19.1950   -1.1300   -0.7370 F   0  0  0  0  0  0  0  0  0  0  0  0
  -10.0453   -2.0069   -4.3181 C   0  0  0  0  0  0  0  0  0  0  0  0
   -9.8476   -3.8948   -2.8015 C   0  0  0  0  0  0  0  0  0  0  0  0
  -10.9610   -3.7422   -2.4157 F   0  0  0  0  0  0  0  0  0  0  0  0
   -9.7620   -4.8695   -3.9239 C   0  0  0  0  0  0  0  0  0  0  0  0
   -9.0844   -4.3928   -1.6149 O   0  0  0  0  0  0  0  0  0  0  0  0
   -8.7364   -5.6532   -1.9682 C   0  0  0  0  0  0  0  0  0  0  0  0
   -9.0641   -5.9617   -3.3273 C   0  0  0  0  0  0  0  0  0  0  0  0
  1  2  2  0
  2  3  1  0
  2 16  1  0
  3  4  1  0
  3  6  2  0
  4  5  1  0
  6  7  1  0
  7 15  1  0
  7  8  1  0
 11 12  1  0
 12 28  1  0
 12 27  1  0
 12 26  1  0
 15 16  1  0
 15 25  2  0
 16 17  1  0
 17 18  1  0
 18 19  1  0
 18 29  1  0
 18 30  1  0
 30 31  1  0
 30 32  1  0
 30 33  1  0
 33 34  1  0
 32 35  1  0
 34 35  1  0
  8  9  2  0
  9 10  1  0
 10 11  2  0
 11 13  1  0
 13 14  2  0
 14  8  1  0
 19 20  2  0
 20 21  1  0
 21 22  2  0
 22 23  1  0
 23 24  2  0
 24 19  1  0
M  END

$$$$
No_325-gen_results_new/Mpro_new_generate_500/2024-01-19-21-58-56/
     RDKit          3D

 33 35  0  0  0  0  0  0  0  0999 V2000
   -9.1300   -2.9100    0.4520 O   0  0  0  0  0  0  0  0  0  0  0  0
  -10.2490   -2.6420    0.1800 C   0  0  0  0  0  0  0  0  0  0  0  0
  -11.3800   -3.0650    1.0860 C   0  0  0  0  0  0  0  0  0  0  0  0
  -11.2000   -3.8390    2.3880 C   0  0  0  0  0  0  0  0  0  0  0  0
  -10.9900   -5.0690    2.3420 N   0  0  0  0  0  0  0  0  0  0  0  0
  -12.7310   -2.7290    0.7330 N   0  0  0  0  0  0  0  0  0  0  0  0
  -12.9960   -1.9940   -0.4510 N   0  0  0  0  0  0  0  0  0  0  0  0
  -14.3580   -1.6940   -0.7530 C   0  0  0  0  0  0  0  0  0  0  0  0
  -15.0390   -0.7180   -0.0560 C   0  0  0  0  0  0  0  0  0  0  0  0
  -16.3510   -0.4690   -0.3980 C   0  0  0  0  0  0  0  0  0  0  0  0
  -16.9430   -1.2030   -1.4080 C   0  0  0  0  0  0  0  0  0  0  0  0
  -18.3840   -0.9560   -1.8060 C   0  0  0  0  0  0  0  0  0  0  0  0
  -16.2510   -2.1690   -2.1000 C   0  0  0  0  0  0  0  0  0  0  0  0
  -14.9490   -2.4160   -1.7590 C   0  0  0  0  0  0  0  0  0  0  0  0
  -11.9050   -1.5730   -1.3540 C   0  0  0  0  0  0  0  0  0  0  0  0
  -10.5280   -1.9050   -1.0240 N   0  0  0  0  0  0  0  0  0  0  0  0
   -9.4550   -1.4720   -1.9190 C   0  0  0  0  0  0  0  0  0  0  0  0
   -9.2820   -2.3940   -3.1270 C   0  0  0  0  0  0  0  0  0  0  0  0
   -7.8170   -2.5500   -3.5360 C   0  0  0  0  0  0  0  0  0  0  0  0
   -6.9720   -3.3210   -2.7550 C   0  0  0  0  0  0  0  0  0  0  0  0
   -5.6390   -3.4770   -3.1110 C   0  0  0  0  0  0  0  0  0  0  0  0
   -5.1940   -2.8390   -4.2640 C   0  0  0  0  0  0  0  0  0  0  0  0
   -6.0850   -2.0780   -5.0070 C   0  0  0  0  0  0  0  0  0  0  0  0
   -7.3470   -1.9600   -4.6270 N   0  0  0  0  0  0  0  0  0  0  0  0
  -12.1450   -0.9640   -2.3390 O   0  0  0  0  0  0  0  0  0  0  0  0
  -18.7610   -1.8760   -2.7390 F   0  0  0  0  0  0  0  0  0  0  0  0
  -18.4550    0.3250   -2.2750 F   0  0  0  0  0  0  0  0  0  0  0  0
  -19.1950   -1.1300   -0.7370 F   0  0  0  0  0  0  0  0  0  0  0  0
  -10.1467   -3.0903   -3.8357 C   0  0  0  0  0  0  0  0  0  0  0  0
  -10.1176   -2.2481   -3.6828 S   0  0  0  0  0  0  0  0  0  0  0  0
  -11.4325   -1.6064   -3.4352 O   0  0  0  0  0  0  0  0  0  0  0  0
   -9.8860   -1.1072   -4.9024 O   0  0  0  0  0  0  0  0  0  0  0  0
  -10.7692   -3.4753   -4.5188 C   0  0  0  0  0  0  0  0  0  0  0  0
  1  2  2  0
  2  3  1  0
  2 16  1  0
  3  4  1  0
  3  6  2  0
  4  5  1  0
  6  7  1  0
  7 15  1  0
  7  8  1  0
 11 12  1  0
 12 28  1  0
 12 27  1  0
 12 26  1  0
 15 16  1  0
 15 25  2  0
 16 17  1  0
 17 18  1  0
 18 19  1  0
 18 29  1  0
 29 30  1  0
 30 31  2  0
 30 32  2  0
 29 33  1  0
  8  9  2  0
  9 10  1  0
 10 11  2  0
 11 13  1  0
 13 14  2  0
 14  8  1  0
 19 20  2  0
 20 21  1  0
 21 22  2  0
 22 23  1  0
 23 24  2  0
 24 19  1  0
M  END

$$$$
No_326-gen_results_new/Mpro_new_generate_500/2024-01-19-21-58-56/
     RDKit          3D

 35 37  0  0  0  0  0  0  0  0999 V2000
   -9.1300   -2.9100    0.4520 O   0  0  0  0  0  0  0  0  0  0  0  0
  -10.2490   -2.6420    0.1800 C   0  0  0  0  0  0  0  0  0  0  0  0
  -11.3800   -3.0650    1.0860 C   0  0  0  0  0  0  0  0  0  0  0  0
  -11.2000   -3.8390    2.3880 C   0  0  0  0  0  0  0  0  0  0  0  0
  -10.9900   -5.0690    2.3420 N   0  0  0  0  0  0  0  0  0  0  0  0
  -12.7310   -2.7290    0.7330 N   0  0  0  0  0  0  0  0  0  0  0  0
  -12.9960   -1.9940   -0.4510 N   0  0  0  0  0  0  0  0  0  0  0  0
  -14.3580   -1.6940   -0.7530 C   0  0  0  0  0  0  0  0  0  0  0  0
  -15.0390   -0.7180   -0.0560 C   0  0  0  0  0  0  0  0  0  0  0  0
  -16.3510   -0.4690   -0.3980 C   0  0  0  0  0  0  0  0  0  0  0  0
  -16.9430   -1.2030   -1.4080 C   0  0  0  0  0  0  0  0  0  0  0  0
  -18.3840   -0.9560   -1.8060 C   0  0  0  0  0  0  0  0  0  0  0  0
  -16.2510   -2.1690   -2.1000 C   0  0  0  0  0  0  0  0  0  0  0  0
  -14.9490   -2.4160   -1.7590 C   0  0  0  0  0  0  0  0  0  0  0  0
  -11.9050   -1.5730   -1.3540 C   0  0  0  0  0  0  0  0  0  0  0  0
  -10.5280   -1.9050   -1.0240 N   0  0  0  0  0  0  0  0  0  0  0  0
   -9.4550   -1.4720   -1.9190 C   0  0  0  0  0  0  0  0  0  0  0  0
   -9.2820   -2.3940   -3.1270 C   0  0  0  0  0  0  0  0  0  0  0  0
   -7.8170   -2.5500   -3.5360 C   0  0  0  0  0  0  0  0  0  0  0  0
   -6.9720   -3.3210   -2.7550 C   0  0  0  0  0  0  0  0  0  0  0  0
   -5.6390   -3.4770   -3.1110 C   0  0  0  0  0  0  0  0  0  0  0  0
   -5.1940   -2.8390   -4.2640 C   0  0  0  0  0  0  0  0  0  0  0  0
   -6.0850   -2.0780   -5.0070 C   0  0  0  0  0  0  0  0  0  0  0  0
   -7.3470   -1.9600   -4.6270 N   0  0  0  0  0  0  0  0  0  0  0  0
  -12.1450   -0.9640   -2.3390 O   0  0  0  0  0  0  0  0  0  0  0  0
  -18.7610   -1.8760   -2.7390 F   0  0  0  0  0  0  0  0  0  0  0  0
  -18.4550    0.3250   -2.2750 F   0  0  0  0  0  0  0  0  0  0  0  0
  -19.1950   -1.1300   -0.7370 F   0  0  0  0  0  0  0  0  0  0  0  0
   -9.7920   -3.7475   -2.8656 C   0  0  0  0  0  0  0  0  0  0  0  0
  -10.0717   -1.8029   -4.3549 C   0  0  0  0  0  0  0  0  0  0  0  0
  -10.0419   -4.6597   -4.1091 C   0  0  0  0  0  0  0  0  0  0  0  0
  -10.4634   -4.0389   -5.1300 F   0  0  0  0  0  0  0  0  0  0  0  0
   -9.6950   -5.9528   -4.2054 C   0  0  0  0  0  0  0  0  0  0  0  0
   -8.3086   -6.3328   -4.6170 C   0  0  0  0  0  0  0  0  0  0  0  0
   -7.9552   -6.0804   -5.7587 N   0  0  0  0  0  0  0  0  0  0  0  0
  1  2  2  0
  2  3  1  0
  2 16  1  0
  3  4  1  0
  3  6  2  0
  4  5  1  0
  6  7  1  0
  7 15  1  0
  7  8  1  0
 11 12  1  0
 12 28  1  0
 12 27  1  0
 12 26  1  0
 15 16  1  0
 15 25  2  0
 16 17  1  0
 17 18  1  0
 18 19  1  0
 18 29  1  0
 18 30  1  0
 29 31  2  3
 31 32  1  0
 31 33  1  0
 33 34  1  0
 34 35  1  0
  8  9  2  0
  9 10  1  0
 10 11  2  0
 11 13  1  0
 13 14  2  0
 14  8  1  0
 19 20  2  0
 20 21  1  0
 21 22  2  0
 22 23  1  0
 23 24  2  0
 24 19  1  0
M  END

$$$$
No_327-gen_results_new/Mpro_new_generate_500/2024-01-19-21-58-56/
     RDKit          3D

 35 38  0  0  0  0  0  0  0  0999 V2000
   -9.1300   -2.9100    0.4520 O   0  0  0  0  0  0  0  0  0  0  0  0
  -10.2490   -2.6420    0.1800 C   0  0  0  0  0  0  0  0  0  0  0  0
  -11.3800   -3.0650    1.0860 C   0  0  0  0  0  0  0  0  0  0  0  0
  -11.2000   -3.8390    2.3880 C   0  0  0  0  0  0  0  0  0  0  0  0
  -10.9900   -5.0690    2.3420 N   0  0  0  0  0  0  0  0  0  0  0  0
  -12.7310   -2.7290    0.7330 N   0  0  0  0  0  0  0  0  0  0  0  0
  -12.9960   -1.9940   -0.4510 N   0  0  0  0  0  0  0  0  0  0  0  0
  -14.3580   -1.6940   -0.7530 C   0  0  0  0  0  0  0  0  0  0  0  0
  -15.0390   -0.7180   -0.0560 C   0  0  0  0  0  0  0  0  0  0  0  0
  -16.3510   -0.4690   -0.3980 C   0  0  0  0  0  0  0  0  0  0  0  0
  -16.9430   -1.2030   -1.4080 C   0  0  0  0  0  0  0  0  0  0  0  0
  -18.3840   -0.9560   -1.8060 C   0  0  0  0  0  0  0  0  0  0  0  0
  -16.2510   -2.1690   -2.1000 C   0  0  0  0  0  0  0  0  0  0  0  0
  -14.9490   -2.4160   -1.7590 C   0  0  0  0  0  0  0  0  0  0  0  0
  -11.9050   -1.5730   -1.3540 C   0  0  0  0  0  0  0  0  0  0  0  0
  -10.5280   -1.9050   -1.0240 N   0  0  0  0  0  0  0  0  0  0  0  0
   -9.4550   -1.4720   -1.9190 C   0  0  0  0  0  0  0  0  0  0  0  0
   -9.2820   -2.3940   -3.1270 C   0  0  0  0  0  0  0  0  0  0  0  0
   -7.8170   -2.5500   -3.5360 C   0  0  0  0  0  0  0  0  0  0  0  0
   -6.9720   -3.3210   -2.7550 C   0  0  0  0  0  0  0  0  0  0  0  0
   -5.6390   -3.4770   -3.1110 C   0  0  0  0  0  0  0  0  0  0  0  0
   -5.1940   -2.8390   -4.2640 C   0  0  0  0  0  0  0  0  0  0  0  0
   -6.0850   -2.0780   -5.0070 C   0  0  0  0  0  0  0  0  0  0  0  0
   -7.3470   -1.9600   -4.6270 N   0  0  0  0  0  0  0  0  0  0  0  0
  -12.1450   -0.9640   -2.3390 O   0  0  0  0  0  0  0  0  0  0  0  0
  -18.7610   -1.8760   -2.7390 F   0  0  0  0  0  0  0  0  0  0  0  0
  -18.4550    0.3250   -2.2750 F   0  0  0  0  0  0  0  0  0  0  0  0
  -19.1950   -1.1300   -0.7370 F   0  0  0  0  0  0  0  0  0  0  0  0
  -10.0453   -2.0069   -4.3181 C   0  0  0  0  0  0  0  0  0  0  0  0
   -9.8476   -3.8948   -2.8015 C   0  0  0  0  0  0  0  0  0  0  0  0
  -10.9871   -4.2370   -3.4678 C   0  0  0  0  0  0  0  0  0  0  0  0
  -11.1005   -3.0106   -4.3397 O   0  0  0  0  0  0  0  0  0  0  0  0
  -12.1606   -4.9560   -4.1288 C   0  0  0  0  0  0  0  0  0  0  0  0
  -12.0939   -5.8136   -5.1768 C   0  0  0  0  0  0  0  0  0  0  0  0
  -10.9244   -6.0367   -5.7732 N   0  0  0  0  0  0  0  0  0  0  0  0
  1  2  2  0
  2  3  1  0
  2 16  1  0
  3  4  1  0
  3  6  2  0
  4  5  1  0
  6  7  1  0
  7 15  1  0
  7  8  1  0
 11 12  1  0
 12 28  1  0
 12 27  1  0
 12 26  1  0
 15 16  1  0
 15 25  2  0
 16 17  1  0
 17 18  1  0
 18 19  1  0
 18 29  1  0
 18 30  1  0
 30 31  1  0
 29 32  1  0
 31 32  1  0
 31 33  1  0
 33 34  1  0
 34 35  1  0
  8  9  2  0
  9 10  1  0
 10 11  2  0
 11 13  1  0
 13 14  2  0
 14  8  1  0
 19 20  2  0
 20 21  1  0
 21 22  2  0
 22 23  1  0
 23 24  2  0
 24 19  1  0
M  END

$$$$
No_328-gen_results_new/Mpro_new_generate_500/2024-01-19-21-58-56/
     RDKit          3D

 33 35  0  0  0  0  0  0  0  0999 V2000
   -9.1300   -2.9100    0.4520 O   0  0  0  0  0  0  0  0  0  0  0  0
  -10.2490   -2.6420    0.1800 C   0  0  0  0  0  0  0  0  0  0  0  0
  -11.3800   -3.0650    1.0860 C   0  0  0  0  0  0  0  0  0  0  0  0
  -11.2000   -3.8390    2.3880 C   0  0  0  0  0  0  0  0  0  0  0  0
  -10.9900   -5.0690    2.3420 N   0  0  0  0  0  0  0  0  0  0  0  0
  -12.7310   -2.7290    0.7330 N   0  0  0  0  0  0  0  0  0  0  0  0
  -12.9960   -1.9940   -0.4510 N   0  0  0  0  0  0  0  0  0  0  0  0
  -14.3580   -1.6940   -0.7530 C   0  0  0  0  0  0  0  0  0  0  0  0
  -15.0390   -0.7180   -0.0560 C   0  0  0  0  0  0  0  0  0  0  0  0
  -16.3510   -0.4690   -0.3980 C   0  0  0  0  0  0  0  0  0  0  0  0
  -16.9430   -1.2030   -1.4080 C   0  0  0  0  0  0  0  0  0  0  0  0
  -18.3840   -0.9560   -1.8060 C   0  0  0  0  0  0  0  0  0  0  0  0
  -16.2510   -2.1690   -2.1000 C   0  0  0  0  0  0  0  0  0  0  0  0
  -14.9490   -2.4160   -1.7590 C   0  0  0  0  0  0  0  0  0  0  0  0
  -11.9050   -1.5730   -1.3540 C   0  0  0  0  0  0  0  0  0  0  0  0
  -10.5280   -1.9050   -1.0240 N   0  0  0  0  0  0  0  0  0  0  0  0
   -9.4550   -1.4720   -1.9190 C   0  0  0  0  0  0  0  0  0  0  0  0
   -9.2820   -2.3940   -3.1270 C   0  0  0  0  0  0  0  0  0  0  0  0
   -7.8170   -2.5500   -3.5360 C   0  0  0  0  0  0  0  0  0  0  0  0
   -6.9720   -3.3210   -2.7550 C   0  0  0  0  0  0  0  0  0  0  0  0
   -5.6390   -3.4770   -3.1110 C   0  0  0  0  0  0  0  0  0  0  0  0
   -5.1940   -2.8390   -4.2640 C   0  0  0  0  0  0  0  0  0  0  0  0
   -6.0850   -2.0780   -5.0070 C   0  0  0  0  0  0  0  0  0  0  0  0
   -7.3470   -1.9600   -4.6270 N   0  0  0  0  0  0  0  0  0  0  0  0
  -12.1450   -0.9640   -2.3390 O   0  0  0  0  0  0  0  0  0  0  0  0
  -18.7610   -1.8760   -2.7390 F   0  0  0  0  0  0  0  0  0  0  0  0
  -18.4550    0.3250   -2.2750 F   0  0  0  0  0  0  0  0  0  0  0  0
  -19.1950   -1.1300   -0.7370 F   0  0  0  0  0  0  0  0  0  0  0  0
   -9.7920   -3.7475   -2.8656 C   0  0  0  0  0  0  0  0  0  0  0  0
   -9.9778   -1.5944   -4.2803 C   0  0  0  0  0  0  0  0  0  0  0  0
   -9.9974   -4.6360   -4.1639 C   0  0  0  0  0  0  0  0  0  0  0  0
   -9.1075   -4.6547   -1.7356 S   0  0  0  0  0  0  0  0  0  0  0  0
   -9.6215   -4.4880   -0.5628 O   0  0  0  0  0  0  0  0  0  0  0  0
  1  2  2  0
  2  3  1  0
  2 16  1  0
  3  4  1  0
  3  6  2  0
  4  5  1  0
  6  7  1  0
  7 15  1  0
  7  8  1  0
 11 12  1  0
 12 28  1  0
 12 27  1  0
 12 26  1  0
 15 16  1  0
 15 25  2  0
 16 17  1  0
 17 18  1  0
 18 19  1  0
 18 29  1  0
 18 30  1  0
 29 31  1  0
 29 32  1  0
 32 33  2  0
  8  9  2  0
  9 10  1  0
 10 11  2  0
 11 13  1  0
 13 14  2  0
 14  8  1  0
 19 20  2  0
 20 21  1  0
 21 22  2  0
 22 23  1  0
 23 24  2  0
 24 19  1  0
M  END

$$$$
No_329-gen_results_new/Mpro_new_generate_500/2024-01-19-21-58-56/
     RDKit          3D

 32 34  0  0  0  0  0  0  0  0999 V2000
   -9.1300   -2.9100    0.4520 O   0  0  0  0  0  0  0  0  0  0  0  0
  -10.2490   -2.6420    0.1800 C   0  0  0  0  0  0  0  0  0  0  0  0
  -11.3800   -3.0650    1.0860 C   0  0  0  0  0  0  0  0  0  0  0  0
  -11.2000   -3.8390    2.3880 C   0  0  0  0  0  0  0  0  0  0  0  0
  -10.9900   -5.0690    2.3420 N   0  0  0  0  0  0  0  0  0  0  0  0
  -12.7310   -2.7290    0.7330 N   0  0  0  0  0  0  0  0  0  0  0  0
  -12.9960   -1.9940   -0.4510 N   0  0  0  0  0  0  0  0  0  0  0  0
  -14.3580   -1.6940   -0.7530 C   0  0  0  0  0  0  0  0  0  0  0  0
  -15.0390   -0.7180   -0.0560 C   0  0  0  0  0  0  0  0  0  0  0  0
  -16.3510   -0.4690   -0.3980 C   0  0  0  0  0  0  0  0  0  0  0  0
  -16.9430   -1.2030   -1.4080 C   0  0  0  0  0  0  0  0  0  0  0  0
  -18.3840   -0.9560   -1.8060 C   0  0  0  0  0  0  0  0  0  0  0  0
  -16.2510   -2.1690   -2.1000 C   0  0  0  0  0  0  0  0  0  0  0  0
  -14.9490   -2.4160   -1.7590 C   0  0  0  0  0  0  0  0  0  0  0  0
  -11.9050   -1.5730   -1.3540 C   0  0  0  0  0  0  0  0  0  0  0  0
  -10.5280   -1.9050   -1.0240 N   0  0  0  0  0  0  0  0  0  0  0  0
   -9.4550   -1.4720   -1.9190 C   0  0  0  0  0  0  0  0  0  0  0  0
   -9.2820   -2.3940   -3.1270 C   0  0  0  0  0  0  0  0  0  0  0  0
   -7.8170   -2.5500   -3.5360 C   0  0  0  0  0  0  0  0  0  0  0  0
   -6.9720   -3.3210   -2.7550 C   0  0  0  0  0  0  0  0  0  0  0  0
   -5.6390   -3.4770   -3.1110 C   0  0  0  0  0  0  0  0  0  0  0  0
   -5.1940   -2.8390   -4.2640 C   0  0  0  0  0  0  0  0  0  0  0  0
   -6.0850   -2.0780   -5.0070 C   0  0  0  0  0  0  0  0  0  0  0  0
   -7.3470   -1.9600   -4.6270 N   0  0  0  0  0  0  0  0  0  0  0  0
  -12.1450   -0.9640   -2.3390 O   0  0  0  0  0  0  0  0  0  0  0  0
  -18.7610   -1.8760   -2.7390 F   0  0  0  0  0  0  0  0  0  0  0  0
  -18.4550    0.3250   -2.2750 F   0  0  0  0  0  0  0  0  0  0  0  0
  -19.1950   -1.1300   -0.7370 F   0  0  0  0  0  0  0  0  0  0  0  0
  -10.0453   -2.0069   -4.3181 C   0  0  0  0  0  0  0  0  0  0  0  0
   -9.8903   -3.8143   -2.9484 C   0  0  0  0  0  0  0  0  0  0  0  0
  -10.8021   -4.2389   -3.8324 C   0  0  0  0  0  0  0  0  0  0  0  0
  -11.7179   -5.4235   -3.6851 C   0  0  0  0  0  0  0  0  0  0  0  0
  1  2  2  0
  2  3  1  0
  2 16  1  0
  3  4  1  0
  3  6  2  0
  4  5  1  0
  6  7  1  0
  7 15  1  0
  7  8  1  0
 11 12  1  0
 12 28  1  0
 12 27  1  0
 12 26  1  0
 15 16  1  0
 15 25  2  0
 16 17  1  0
 17 18  1  0
 18 19  1  0
 18 29  1  0
 18 30  1  0
 30 31  2  3
 31 32  1  0
  8  9  2  0
  9 10  1  0
 10 11  2  0
 11 13  1  0
 13 14  2  0
 14  8  1  0
 19 20  2  0
 20 21  1  0
 21 22  2  0
 22 23  1  0
 23 24  2  0
 24 19  1  0
M  END

$$$$
No_330-gen_results_new/Mpro_new_generate_500/2024-01-19-21-58-56/
     RDKit          3D

 35 37  0  0  0  0  0  0  0  0999 V2000
   -9.1300   -2.9100    0.4520 O   0  0  0  0  0  0  0  0  0  0  0  0
  -10.2490   -2.6420    0.1800 C   0  0  0  0  0  0  0  0  0  0  0  0
  -11.3800   -3.0650    1.0860 C   0  0  0  0  0  0  0  0  0  0  0  0
  -11.2000   -3.8390    2.3880 C   0  0  0  0  0  0  0  0  0  0  0  0
  -10.9900   -5.0690    2.3420 N   0  0  0  0  0  0  0  0  0  0  0  0
  -12.7310   -2.7290    0.7330 N   0  0  0  0  0  0  0  0  0  0  0  0
  -12.9960   -1.9940   -0.4510 N   0  0  0  0  0  0  0  0  0  0  0  0
  -14.3580   -1.6940   -0.7530 C   0  0  0  0  0  0  0  0  0  0  0  0
  -15.0390   -0.7180   -0.0560 C   0  0  0  0  0  0  0  0  0  0  0  0
  -16.3510   -0.4690   -0.3980 C   0  0  0  0  0  0  0  0  0  0  0  0
  -16.9430   -1.2030   -1.4080 C   0  0  0  0  0  0  0  0  0  0  0  0
  -18.3840   -0.9560   -1.8060 C   0  0  0  0  0  0  0  0  0  0  0  0
  -16.2510   -2.1690   -2.1000 C   0  0  0  0  0  0  0  0  0  0  0  0
  -14.9490   -2.4160   -1.7590 C   0  0  0  0  0  0  0  0  0  0  0  0
  -11.9050   -1.5730   -1.3540 C   0  0  0  0  0  0  0  0  0  0  0  0
  -10.5280   -1.9050   -1.0240 N   0  0  0  0  0  0  0  0  0  0  0  0
   -9.4550   -1.4720   -1.9190 C   0  0  0  0  0  0  0  0  0  0  0  0
   -9.2820   -2.3940   -3.1270 C   0  0  0  0  0  0  0  0  0  0  0  0
   -7.8170   -2.5500   -3.5360 C   0  0  0  0  0  0  0  0  0  0  0  0
   -6.9720   -3.3210   -2.7550 C   0  0  0  0  0  0  0  0  0  0  0  0
   -5.6390   -3.4770   -3.1110 C   0  0  0  0  0  0  0  0  0  0  0  0
   -5.1940   -2.8390   -4.2640 C   0  0  0  0  0  0  0  0  0  0  0  0
   -6.0850   -2.0780   -5.0070 C   0  0  0  0  0  0  0  0  0  0  0  0
   -7.3470   -1.9600   -4.6270 N   0  0  0  0  0  0  0  0  0  0  0  0
  -12.1450   -0.9640   -2.3390 O   0  0  0  0  0  0  0  0  0  0  0  0
  -18.7610   -1.8760   -2.7390 F   0  0  0  0  0  0  0  0  0  0  0  0
  -18.4550    0.3250   -2.2750 F   0  0  0  0  0  0  0  0  0  0  0  0
  -19.1950   -1.1300   -0.7370 F   0  0  0  0  0  0  0  0  0  0  0  0
   -9.7920   -3.7475   -2.8656 C   0  0  0  0  0  0  0  0  0  0  0  0
  -10.0717   -1.8029   -4.3549 C   0  0  0  0  0  0  0  0  0  0  0  0
  -10.0419   -4.6597   -4.1091 C   0  0  0  0  0  0  0  0  0  0  0  0
  -11.5069   -4.7544   -4.4405 C   0  0  0  0  0  0  0  0  0  0  0  0
  -11.7359   -5.4004   -5.8493 C   0  0  0  0  0  0  0  0  0  0  0  0
  -11.8678   -4.5780   -6.7716 F   0  0  0  0  0  0  0  0  0  0  0  0
  -12.9093   -6.0199   -5.8565 F   0  0  0  0  0  0  0  0  0  0  0  0
  1  2  2  0
  2  3  1  0
  2 16  1  0
  3  4  1  0
  3  6  2  0
  4  5  1  0
  6  7  1  0
  7 15  1  0
  7  8  1  0
 11 12  1  0
 12 28  1  0
 12 27  1  0
 12 26  1  0
 15 16  1  0
 15 25  2  0
 16 17  1  0
 17 18  1  0
 18 19  1  0
 18 29  1  0
 18 30  1  0
 29 31  1  0
 31 32  1  0
 32 33  1  0
 33 34  1  0
 33 35  1  0
  8  9  2  0
  9 10  1  0
 10 11  2  0
 11 13  1  0
 13 14  2  0
 14  8  1  0
 19 20  2  0
 20 21  1  0
 21 22  2  0
 22 23  1  0
 23 24  2  0
 24 19  1  0
M  END

$$$$
No_331-gen_results_new/Mpro_new_generate_500/2024-01-19-21-58-56/
     RDKit          3D

 35 38  0  0  0  0  0  0  0  0999 V2000
   -9.1300   -2.9100    0.4520 O   0  0  0  0  0  0  0  0  0  0  0  0
  -10.2490   -2.6420    0.1800 C   0  0  0  0  0  0  0  0  0  0  0  0
  -11.3800   -3.0650    1.0860 C   0  0  0  0  0  0  0  0  0  0  0  0
  -11.2000   -3.8390    2.3880 C   0  0  0  0  0  0  0  0  0  0  0  0
  -10.9900   -5.0690    2.3420 N   0  0  0  0  0  0  0  0  0  0  0  0
  -12.7310   -2.7290    0.7330 N   0  0  0  0  0  0  0  0  0  0  0  0
  -12.9960   -1.9940   -0.4510 N   0  0  0  0  0  0  0  0  0  0  0  0
  -14.3580   -1.6940   -0.7530 C   0  0  0  0  0  0  0  0  0  0  0  0
  -15.0390   -0.7180   -0.0560 C   0  0  0  0  0  0  0  0  0  0  0  0
  -16.3510   -0.4690   -0.3980 C   0  0  0  0  0  0  0  0  0  0  0  0
  -16.9430   -1.2030   -1.4080 C   0  0  0  0  0  0  0  0  0  0  0  0
  -18.3840   -0.9560   -1.8060 C   0  0  0  0  0  0  0  0  0  0  0  0
  -16.2510   -2.1690   -2.1000 C   0  0  0  0  0  0  0  0  0  0  0  0
  -14.9490   -2.4160   -1.7590 C   0  0  0  0  0  0  0  0  0  0  0  0
  -11.9050   -1.5730   -1.3540 C   0  0  0  0  0  0  0  0  0  0  0  0
  -10.5280   -1.9050   -1.0240 N   0  0  0  0  0  0  0  0  0  0  0  0
   -9.4550   -1.4720   -1.9190 C   0  0  0  0  0  0  0  0  0  0  0  0
   -9.2820   -2.3940   -3.1270 C   0  0  0  0  0  0  0  0  0  0  0  0
   -7.8170   -2.5500   -3.5360 C   0  0  0  0  0  0  0  0  0  0  0  0
   -6.9720   -3.3210   -2.7550 C   0  0  0  0  0  0  0  0  0  0  0  0
   -5.6390   -3.4770   -3.1110 C   0  0  0  0  0  0  0  0  0  0  0  0
   -5.1940   -2.8390   -4.2640 C   0  0  0  0  0  0  0  0  0  0  0  0
   -6.0850   -2.0780   -5.0070 C   0  0  0  0  0  0  0  0  0  0  0  0
   -7.3470   -1.9600   -4.6270 N   0  0  0  0  0  0  0  0  0  0  0  0
  -12.1450   -0.9640   -2.3390 O   0  0  0  0  0  0  0  0  0  0  0  0
  -18.7610   -1.8760   -2.7390 F   0  0  0  0  0  0  0  0  0  0  0  0
  -18.4550    0.3250   -2.2750 F   0  0  0  0  0  0  0  0  0  0  0  0
  -19.1950   -1.1300   -0.7370 F   0  0  0  0  0  0  0  0  0  0  0  0
   -9.7920   -3.7475   -2.8656 C   0  0  0  0  0  0  0  0  0  0  0  0
  -10.0717   -1.8029   -4.3549 C   0  0  0  0  0  0  0  0  0  0  0  0
  -10.0419   -4.6597   -4.1091 C   0  0  0  0  0  0  0  0  0  0  0  0
  -10.3271   -4.0944   -5.2068 O   0  0  0  0  0  0  0  0  0  0  0  0
  -10.6195   -2.6984   -5.2717 C   0  0  0  0  0  0  0  0  0  0  0  0
  -11.9569   -2.5979   -5.0327 F   0  0  0  0  0  0  0  0  0  0  0  0
  -10.4029   -2.2519   -6.7547 C   0  0  0  0  0  0  0  0  0  0  0  0
  1  2  2  0
  2  3  1  0
  2 16  1  0
  3  4  1  0
  3  6  2  0
  4  5  1  0
  6  7  1  0
  7 15  1  0
  7  8  1  0
 11 12  1  0
 12 28  1  0
 12 27  1  0
 12 26  1  0
 15 16  1  0
 15 25  2  0
 16 17  1  0
 17 18  1  0
 18 19  1  0
 18 29  1  0
 18 30  1  0
 29 31  2  0
 31 32  1  0
 30 33  1  0
 32 33  1  0
 33 34  1  0
 33 35  1  0
  8  9  2  0
  9 10  1  0
 10 11  2  0
 11 13  1  0
 13 14  2  0
 14  8  1  0
 19 20  2  0
 20 21  1  0
 21 22  2  0
 22 23  1  0
 23 24  2  0
 24 19  1  0
M  END

$$$$
No_332-gen_results_new/Mpro_new_generate_500/2024-01-19-21-58-56/
     RDKit          3D

 34 36  0  0  0  0  0  0  0  0999 V2000
   -9.1300   -2.9100    0.4520 O   0  0  0  0  0  0  0  0  0  0  0  0
  -10.2490   -2.6420    0.1800 C   0  0  0  0  0  0  0  0  0  0  0  0
  -11.3800   -3.0650    1.0860 C   0  0  0  0  0  0  0  0  0  0  0  0
  -11.2000   -3.8390    2.3880 C   0  0  0  0  0  0  0  0  0  0  0  0
  -10.9900   -5.0690    2.3420 N   0  0  0  0  0  0  0  0  0  0  0  0
  -12.7310   -2.7290    0.7330 N   0  0  0  0  0  0  0  0  0  0  0  0
  -12.9960   -1.9940   -0.4510 N   0  0  0  0  0  0  0  0  0  0  0  0
  -14.3580   -1.6940   -0.7530 C   0  0  0  0  0  0  0  0  0  0  0  0
  -15.0390   -0.7180   -0.0560 C   0  0  0  0  0  0  0  0  0  0  0  0
  -16.3510   -0.4690   -0.3980 C   0  0  0  0  0  0  0  0  0  0  0  0
  -16.9430   -1.2030   -1.4080 C   0  0  0  0  0  0  0  0  0  0  0  0
  -18.3840   -0.9560   -1.8060 C   0  0  0  0  0  0  0  0  0  0  0  0
  -16.2510   -2.1690   -2.1000 C   0  0  0  0  0  0  0  0  0  0  0  0
  -14.9490   -2.4160   -1.7590 C   0  0  0  0  0  0  0  0  0  0  0  0
  -11.9050   -1.5730   -1.3540 C   0  0  0  0  0  0  0  0  0  0  0  0
  -10.5280   -1.9050   -1.0240 N   0  0  0  0  0  0  0  0  0  0  0  0
   -9.4550   -1.4720   -1.9190 C   0  0  0  0  0  0  0  0  0  0  0  0
   -9.2820   -2.3940   -3.1270 C   0  0  0  0  0  0  0  0  0  0  0  0
   -7.8170   -2.5500   -3.5360 C   0  0  0  0  0  0  0  0  0  0  0  0
   -6.9720   -3.3210   -2.7550 C   0  0  0  0  0  0  0  0  0  0  0  0
   -5.6390   -3.4770   -3.1110 C   0  0  0  0  0  0  0  0  0  0  0  0
   -5.1940   -2.8390   -4.2640 C   0  0  0  0  0  0  0  0  0  0  0  0
   -6.0850   -2.0780   -5.0070 C   0  0  0  0  0  0  0  0  0  0  0  0
   -7.3470   -1.9600   -4.6270 N   0  0  0  0  0  0  0  0  0  0  0  0
  -12.1450   -0.9640   -2.3390 O   0  0  0  0  0  0  0  0  0  0  0  0
  -18.7610   -1.8760   -2.7390 F   0  0  0  0  0  0  0  0  0  0  0  0
  -18.4550    0.3250   -2.2750 F   0  0  0  0  0  0  0  0  0  0  0  0
  -19.1950   -1.1300   -0.7370 F   0  0  0  0  0  0  0  0  0  0  0  0
  -10.0453   -2.0069   -4.3181 C   0  0  0  0  0  0  0  0  0  0  0  0
   -9.8903   -3.8143   -2.9484 C   0  0  0  0  0  0  0  0  0  0  0  0
   -9.4956   -4.3962   -1.8742 O   0  0  0  0  0  0  0  0  0  0  0  0
  -10.5196   -4.6591   -3.8841 C   0  0  0  0  0  0  0  0  0  0  0  0
  -11.4227   -5.6185   -3.9252 C   0  0  0  0  0  0  0  0  0  0  0  0
  -12.5419   -5.3801   -2.7935 C   0  0  0  0  0  0  0  0  0  0  0  0
  1  2  2  0
  2  3  1  0
  2 16  1  0
  3  4  1  0
  3  6  2  0
  4  5  1  0
  6  7  1  0
  7 15  1  0
  7  8  1  0
 11 12  1  0
 12 28  1  0
 12 27  1  0
 12 26  1  0
 15 16  1  0
 15 25  2  0
 16 17  1  0
 17 18  1  0
 18 19  1  0
 18 29  1  0
 18 30  1  0
 30 31  2  0
 30 32  1  0
 32 33  1  0
 33 34  2  0
  8  9  2  0
  9 10  1  0
 10 11  2  0
 11 13  1  0
 13 14  2  0
 14  8  1  0
 19 20  2  0
 20 21  1  0
 21 22  2  0
 22 23  1  0
 23 24  2  0
 24 19  1  0
M  END

$$$$
No_333-gen_results_new/Mpro_new_generate_500/2024-01-19-21-58-56/
     RDKit          3D

 34 36  0  0  0  0  0  0  0  0999 V2000
   -9.1300   -2.9100    0.4520 O   0  0  0  0  0  0  0  0  0  0  0  0
  -10.2490   -2.6420    0.1800 C   0  0  0  0  0  0  0  0  0  0  0  0
  -11.3800   -3.0650    1.0860 C   0  0  0  0  0  0  0  0  0  0  0  0
  -11.2000   -3.8390    2.3880 C   0  0  0  0  0  0  0  0  0  0  0  0
  -10.9900   -5.0690    2.3420 N   0  0  0  0  0  0  0  0  0  0  0  0
  -12.7310   -2.7290    0.7330 N   0  0  0  0  0  0  0  0  0  0  0  0
  -12.9960   -1.9940   -0.4510 N   0  0  0  0  0  0  0  0  0  0  0  0
  -14.3580   -1.6940   -0.7530 C   0  0  0  0  0  0  0  0  0  0  0  0
  -15.0390   -0.7180   -0.0560 C   0  0  0  0  0  0  0  0  0  0  0  0
  -16.3510   -0.4690   -0.3980 C   0  0  0  0  0  0  0  0  0  0  0  0
  -16.9430   -1.2030   -1.4080 C   0  0  0  0  0  0  0  0  0  0  0  0
  -18.3840   -0.9560   -1.8060 C   0  0  0  0  0  0  0  0  0  0  0  0
  -16.2510   -2.1690   -2.1000 C   0  0  0  0  0  0  0  0  0  0  0  0
  -14.9490   -2.4160   -1.7590 C   0  0  0  0  0  0  0  0  0  0  0  0
  -11.9050   -1.5730   -1.3540 C   0  0  0  0  0  0  0  0  0  0  0  0
  -10.5280   -1.9050   -1.0240 N   0  0  0  0  0  0  0  0  0  0  0  0
   -9.4550   -1.4720   -1.9190 C   0  0  0  0  0  0  0  0  0  0  0  0
   -9.2820   -2.3940   -3.1270 C   0  0  0  0  0  0  0  0  0  0  0  0
   -7.8170   -2.5500   -3.5360 C   0  0  0  0  0  0  0  0  0  0  0  0
   -6.9720   -3.3210   -2.7550 C   0  0  0  0  0  0  0  0  0  0  0  0
   -5.6390   -3.4770   -3.1110 C   0  0  0  0  0  0  0  0  0  0  0  0
   -5.1940   -2.8390   -4.2640 C   0  0  0  0  0  0  0  0  0  0  0  0
   -6.0850   -2.0780   -5.0070 C   0  0  0  0  0  0  0  0  0  0  0  0
   -7.3470   -1.9600   -4.6270 N   0  0  0  0  0  0  0  0  0  0  0  0
  -12.1450   -0.9640   -2.3390 O   0  0  0  0  0  0  0  0  0  0  0  0
  -18.7610   -1.8760   -2.7390 F   0  0  0  0  0  0  0  0  0  0  0  0
  -18.4550    0.3250   -2.2750 F   0  0  0  0  0  0  0  0  0  0  0  0
  -19.1950   -1.1300   -0.7370 F   0  0  0  0  0  0  0  0  0  0  0  0
   -9.7920   -3.7475   -2.8656 C   0  0  0  0  0  0  0  0  0  0  0  0
  -10.0268   -1.9037   -4.2201 F   0  0  0  0  0  0  0  0  0  0  0  0
   -9.7674   -4.7763   -4.0487 C   0  0  0  0  0  0  0  0  0  0  0  0
  -10.8597   -4.8318   -4.9247 C   0  0  0  0  0  0  0  0  0  0  0  0
  -12.0061   -4.6407   -4.4078 F   0  0  0  0  0  0  0  0  0  0  0  0
  -10.9826   -6.0423   -5.6065 F   0  0  0  0  0  0  0  0  0  0  0  0
  1  2  2  0
  2  3  1  0
  2 16  1  0
  3  4  1  0
  3  6  2  0
  4  5  1  0
  6  7  1  0
  7 15  1  0
  7  8  1  0
 11 12  1  0
 12 28  1  0
 12 27  1  0
 12 26  1  0
 15 16  1  0
 15 25  2  0
 16 17  1  0
 17 18  1  0
 18 19  1  0
 18 29  1  0
 18 30  1  0
 29 31  1  0
 31 32  2  3
 32 33  1  0
 32 34  1  0
  8  9  2  0
  9 10  1  0
 10 11  2  0
 11 13  1  0
 13 14  2  0
 14  8  1  0
 19 20  2  0
 20 21  1  0
 21 22  2  0
 22 23  1  0
 23 24  2  0
 24 19  1  0
M  END

$$$$
No_334-gen_results_new/Mpro_new_generate_500/2024-01-19-21-58-56/
     RDKit          3D

 34 37  0  0  0  0  0  0  0  0999 V2000
   -9.1300   -2.9100    0.4520 O   0  0  0  0  0  0  0  0  0  0  0  0
  -10.2490   -2.6420    0.1800 C   0  0  0  0  0  0  0  0  0  0  0  0
  -11.3800   -3.0650    1.0860 C   0  0  0  0  0  0  0  0  0  0  0  0
  -11.2000   -3.8390    2.3880 C   0  0  0  0  0  0  0  0  0  0  0  0
  -10.9900   -5.0690    2.3420 N   0  0  0  0  0  0  0  0  0  0  0  0
  -12.7310   -2.7290    0.7330 N   0  0  0  0  0  0  0  0  0  0  0  0
  -12.9960   -1.9940   -0.4510 N   0  0  0  0  0  0  0  0  0  0  0  0
  -14.3580   -1.6940   -0.7530 C   0  0  0  0  0  0  0  0  0  0  0  0
  -15.0390   -0.7180   -0.0560 C   0  0  0  0  0  0  0  0  0  0  0  0
  -16.3510   -0.4690   -0.3980 C   0  0  0  0  0  0  0  0  0  0  0  0
  -16.9430   -1.2030   -1.4080 C   0  0  0  0  0  0  0  0  0  0  0  0
  -18.3840   -0.9560   -1.8060 C   0  0  0  0  0  0  0  0  0  0  0  0
  -16.2510   -2.1690   -2.1000 C   0  0  0  0  0  0  0  0  0  0  0  0
  -14.9490   -2.4160   -1.7590 C   0  0  0  0  0  0  0  0  0  0  0  0
  -11.9050   -1.5730   -1.3540 C   0  0  0  0  0  0  0  0  0  0  0  0
  -10.5280   -1.9050   -1.0240 N   0  0  0  0  0  0  0  0  0  0  0  0
   -9.4550   -1.4720   -1.9190 C   0  0  0  0  0  0  0  0  0  0  0  0
   -9.2820   -2.3940   -3.1270 C   0  0  0  0  0  0  0  0  0  0  0  0
   -7.8170   -2.5500   -3.5360 C   0  0  0  0  0  0  0  0  0  0  0  0
   -6.9720   -3.3210   -2.7550 C   0  0  0  0  0  0  0  0  0  0  0  0
   -5.6390   -3.4770   -3.1110 C   0  0  0  0  0  0  0  0  0  0  0  0
   -5.1940   -2.8390   -4.2640 C   0  0  0  0  0  0  0  0  0  0  0  0
   -6.0850   -2.0780   -5.0070 C   0  0  0  0  0  0  0  0  0  0  0  0
   -7.3470   -1.9600   -4.6270 N   0  0  0  0  0  0  0  0  0  0  0  0
  -12.1450   -0.9640   -2.3390 O   0  0  0  0  0  0  0  0  0  0  0  0
  -18.7610   -1.8760   -2.7390 F   0  0  0  0  0  0  0  0  0  0  0  0
  -18.4550    0.3250   -2.2750 F   0  0  0  0  0  0  0  0  0  0  0  0
  -19.1950   -1.1300   -0.7370 F   0  0  0  0  0  0  0  0  0  0  0  0
  -10.0453   -2.0069   -4.3181 C   0  0  0  0  0  0  0  0  0  0  0  0
   -9.8476   -3.8948   -2.8015 C   0  0  0  0  0  0  0  0  0  0  0  0
  -10.1714   -4.7331   -3.9309 C   0  0  0  0  0  0  0  0  0  0  0  0
  -10.7318   -3.9946   -5.1407 C   0  0  0  0  0  0  0  0  0  0  0  0
  -11.4151   -4.8291   -6.0267 F   0  0  0  0  0  0  0  0  0  0  0  0
  -10.8198   -2.6701   -5.1979 C   0  0  0  0  0  0  0  0  0  0  0  0
  1  2  2  0
  2  3  1  0
  2 16  1  0
  3  4  1  0
  3  6  2  0
  4  5  1  0
  6  7  1  0
  7 15  1  0
  7  8  1  0
 11 12  1  0
 12 28  1  0
 12 27  1  0
 12 26  1  0
 15 16  1  0
 15 25  2  0
 16 17  1  0
 17 18  1  0
 18 19  1  0
 18 29  1  0
 18 30  1  0
 31 32  1  0
 32 33  1  0
 29 34  1  0
 32 34  1  0
 31 30  1  0
  8  9  2  0
  9 10  1  0
 10 11  2  0
 11 13  1  0
 13 14  2  0
 14  8  1  0
 19 20  2  0
 20 21  1  0
 21 22  2  0
 22 23  1  0
 23 24  2  0
 24 19  1  0
M  END

$$$$
No_335-gen_results_new/Mpro_new_generate_500/2024-01-19-21-58-56/
     RDKit          3D

 34 36  0  0  0  0  0  0  0  0999 V2000
   -9.1300   -2.9100    0.4520 O   0  0  0  0  0  0  0  0  0  0  0  0
  -10.2490   -2.6420    0.1800 C   0  0  0  0  0  0  0  0  0  0  0  0
  -11.3800   -3.0650    1.0860 C   0  0  0  0  0  0  0  0  0  0  0  0
  -11.2000   -3.8390    2.3880 C   0  0  0  0  0  0  0  0  0  0  0  0
  -10.9900   -5.0690    2.3420 N   0  0  0  0  0  0  0  0  0  0  0  0
  -12.7310   -2.7290    0.7330 N   0  0  0  0  0  0  0  0  0  0  0  0
  -12.9960   -1.9940   -0.4510 N   0  0  0  0  0  0  0  0  0  0  0  0
  -14.3580   -1.6940   -0.7530 C   0  0  0  0  0  0  0  0  0  0  0  0
  -15.0390   -0.7180   -0.0560 C   0  0  0  0  0  0  0  0  0  0  0  0
  -16.3510   -0.4690   -0.3980 C   0  0  0  0  0  0  0  0  0  0  0  0
  -16.9430   -1.2030   -1.4080 C   0  0  0  0  0  0  0  0  0  0  0  0
  -18.3840   -0.9560   -1.8060 C   0  0  0  0  0  0  0  0  0  0  0  0
  -16.2510   -2.1690   -2.1000 C   0  0  0  0  0  0  0  0  0  0  0  0
  -14.9490   -2.4160   -1.7590 C   0  0  0  0  0  0  0  0  0  0  0  0
  -11.9050   -1.5730   -1.3540 C   0  0  0  0  0  0  0  0  0  0  0  0
  -10.5280   -1.9050   -1.0240 N   0  0  0  0  0  0  0  0  0  0  0  0
   -9.4550   -1.4720   -1.9190 C   0  0  0  0  0  0  0  0  0  0  0  0
   -9.2820   -2.3940   -3.1270 C   0  0  0  0  0  0  0  0  0  0  0  0
   -7.8170   -2.5500   -3.5360 C   0  0  0  0  0  0  0  0  0  0  0  0
   -6.9720   -3.3210   -2.7550 C   0  0  0  0  0  0  0  0  0  0  0  0
   -5.6390   -3.4770   -3.1110 C   0  0  0  0  0  0  0  0  0  0  0  0
   -5.1940   -2.8390   -4.2640 C   0  0  0  0  0  0  0  0  0  0  0  0
   -6.0850   -2.0780   -5.0070 C   0  0  0  0  0  0  0  0  0  0  0  0
   -7.3470   -1.9600   -4.6270 N   0  0  0  0  0  0  0  0  0  0  0  0
  -12.1450   -0.9640   -2.3390 O   0  0  0  0  0  0  0  0  0  0  0  0
  -18.7610   -1.8760   -2.7390 F   0  0  0  0  0  0  0  0  0  0  0  0
  -18.4550    0.3250   -2.2750 F   0  0  0  0  0  0  0  0  0  0  0  0
  -19.1950   -1.1300   -0.7370 F   0  0  0  0  0  0  0  0  0  0  0  0
   -9.7920   -3.7475   -2.8656 C   0  0  0  0  0  0  0  0  0  0  0  0
  -10.0717   -1.8029   -4.3549 C   0  0  0  0  0  0  0  0  0  0  0  0
  -10.0419   -4.6597   -4.1091 C   0  0  0  0  0  0  0  0  0  0  0  0
   -9.2792   -5.5641   -4.5414 C   0  0  0  0  0  0  0  0  0  0  0  0
   -8.3736   -5.1287   -5.2526 F   0  0  0  0  0  0  0  0  0  0  0  0
   -9.9312   -6.5659   -5.0873 F   0  0  0  0  0  0  0  0  0  0  0  0
  1  2  2  0
  2  3  1  0
  2 16  1  0
  3  4  1  0
  3  6  2  0
  4  5  1  0
  6  7  1  0
  7 15  1  0
  7  8  1  0
 11 12  1  0
 12 28  1  0
 12 27  1  0
 12 26  1  0
 15 16  1  0
 15 25  2  0
 16 17  1  0
 17 18  1  0
 18 19  1  0
 18 29  1  0
 18 30  1  0
 29 31  1  0
 31 32  2  3
 32 33  1  0
 32 34  1  0
  8  9  2  0
  9 10  1  0
 10 11  2  0
 11 13  1  0
 13 14  2  0
 14  8  1  0
 19 20  2  0
 20 21  1  0
 21 22  2  0
 22 23  1  0
 23 24  2  0
 24 19  1  0
M  END

$$$$
No_336-gen_results_new/Mpro_new_generate_500/2024-01-19-21-58-56/
     RDKit          3D

 35 37  0  0  0  0  0  0  0  0999 V2000
   -9.1300   -2.9100    0.4520 O   0  0  0  0  0  0  0  0  0  0  0  0
  -10.2490   -2.6420    0.1800 C   0  0  0  0  0  0  0  0  0  0  0  0
  -11.3800   -3.0650    1.0860 C   0  0  0  0  0  0  0  0  0  0  0  0
  -11.2000   -3.8390    2.3880 C   0  0  0  0  0  0  0  0  0  0  0  0
  -10.9900   -5.0690    2.3420 N   0  0  0  0  0  0  0  0  0  0  0  0
  -12.7310   -2.7290    0.7330 N   0  0  0  0  0  0  0  0  0  0  0  0
  -12.9960   -1.9940   -0.4510 N   0  0  0  0  0  0  0  0  0  0  0  0
  -14.3580   -1.6940   -0.7530 C   0  0  0  0  0  0  0  0  0  0  0  0
  -15.0390   -0.7180   -0.0560 C   0  0  0  0  0  0  0  0  0  0  0  0
  -16.3510   -0.4690   -0.3980 C   0  0  0  0  0  0  0  0  0  0  0  0
  -16.9430   -1.2030   -1.4080 C   0  0  0  0  0  0  0  0  0  0  0  0
  -18.3840   -0.9560   -1.8060 C   0  0  0  0  0  0  0  0  0  0  0  0
  -16.2510   -2.1690   -2.1000 C   0  0  0  0  0  0  0  0  0  0  0  0
  -14.9490   -2.4160   -1.7590 C   0  0  0  0  0  0  0  0  0  0  0  0
  -11.9050   -1.5730   -1.3540 C   0  0  0  0  0  0  0  0  0  0  0  0
  -10.5280   -1.9050   -1.0240 N   0  0  0  0  0  0  0  0  0  0  0  0
   -9.4550   -1.4720   -1.9190 C   0  0  0  0  0  0  0  0  0  0  0  0
   -9.2820   -2.3940   -3.1270 C   0  0  0  0  0  0  0  0  0  0  0  0
   -7.8170   -2.5500   -3.5360 C   0  0  0  0  0  0  0  0  0  0  0  0
   -6.9720   -3.3210   -2.7550 C   0  0  0  0  0  0  0  0  0  0  0  0
   -5.6390   -3.4770   -3.1110 C   0  0  0  0  0  0  0  0  0  0  0  0
   -5.1940   -2.8390   -4.2640 C   0  0  0  0  0  0  0  0  0  0  0  0
   -6.0850   -2.0780   -5.0070 C   0  0  0  0  0  0  0  0  0  0  0  0
   -7.3470   -1.9600   -4.6270 N   0  0  0  0  0  0  0  0  0  0  0  0
  -12.1450   -0.9640   -2.3390 O   0  0  0  0  0  0  0  0  0  0  0  0
  -18.7610   -1.8760   -2.7390 F   0  0  0  0  0  0  0  0  0  0  0  0
  -18.4550    0.3250   -2.2750 F   0  0  0  0  0  0  0  0  0  0  0  0
  -19.1950   -1.1300   -0.7370 F   0  0  0  0  0  0  0  0  0  0  0  0
  -10.0453   -2.0069   -4.3181 C   0  0  0  0  0  0  0  0  0  0  0  0
   -9.8476   -3.8948   -2.8015 C   0  0  0  0  0  0  0  0  0  0  0  0
  -10.9871   -4.2370   -3.4678 C   0  0  0  0  0  0  0  0  0  0  0  0
  -12.0609   -5.1160   -3.0647 C   0  0  0  0  0  0  0  0  0  0  0  0
  -12.6927   -5.2058   -1.9747 C   0  0  0  0  0  0  0  0  0  0  0  0
  -14.1330   -5.5845   -1.9725 C   0  0  0  0  0  0  0  0  0  0  0  0
  -14.2884   -6.8395   -2.6378 C   0  0  0  0  0  0  0  0  0  0  0  0
  1  2  2  0
  2  3  1  0
  2 16  1  0
  3  4  1  0
  3  6  2  0
  4  5  1  0
  6  7  1  0
  7 15  1  0
  7  8  1  0
 11 12  1  0
 12 28  1  0
 12 27  1  0
 12 26  1  0
 15 16  1  0
 15 25  2  0
 16 17  1  0
 17 18  1  0
 18 19  1  0
 18 29  1  0
 18 30  1  0
 30 31  1  0
 31 32  1  0
 32 33  2  3
 33 34  1  0
 34 35  1  0
  8  9  2  0
  9 10  1  0
 10 11  2  0
 11 13  1  0
 13 14  2  0
 14  8  1  0
 19 20  2  0
 20 21  1  0
 21 22  2  0
 22 23  1  0
 23 24  2  0
 24 19  1  0
M  END

$$$$
No_337-gen_results_new/Mpro_new_generate_500/2024-01-19-21-58-56/
     RDKit          3D

 34 37  0  0  0  0  0  0  0  0999 V2000
   -9.1300   -2.9100    0.4520 O   0  0  0  0  0  0  0  0  0  0  0  0
  -10.2490   -2.6420    0.1800 C   0  0  0  0  0  0  0  0  0  0  0  0
  -11.3800   -3.0650    1.0860 C   0  0  0  0  0  0  0  0  0  0  0  0
  -11.2000   -3.8390    2.3880 C   0  0  0  0  0  0  0  0  0  0  0  0
  -10.9900   -5.0690    2.3420 N   0  0  0  0  0  0  0  0  0  0  0  0
  -12.7310   -2.7290    0.7330 N   0  0  0  0  0  0  0  0  0  0  0  0
  -12.9960   -1.9940   -0.4510 N   0  0  0  0  0  0  0  0  0  0  0  0
  -14.3580   -1.6940   -0.7530 C   0  0  0  0  0  0  0  0  0  0  0  0
  -15.0390   -0.7180   -0.0560 C   0  0  0  0  0  0  0  0  0  0  0  0
  -16.3510   -0.4690   -0.3980 C   0  0  0  0  0  0  0  0  0  0  0  0
  -16.9430   -1.2030   -1.4080 C   0  0  0  0  0  0  0  0  0  0  0  0
  -18.3840   -0.9560   -1.8060 C   0  0  0  0  0  0  0  0  0  0  0  0
  -16.2510   -2.1690   -2.1000 C   0  0  0  0  0  0  0  0  0  0  0  0
  -14.9490   -2.4160   -1.7590 C   0  0  0  0  0  0  0  0  0  0  0  0
  -11.9050   -1.5730   -1.3540 C   0  0  0  0  0  0  0  0  0  0  0  0
  -10.5280   -1.9050   -1.0240 N   0  0  0  0  0  0  0  0  0  0  0  0
   -9.4550   -1.4720   -1.9190 C   0  0  0  0  0  0  0  0  0  0  0  0
   -9.2820   -2.3940   -3.1270 C   0  0  0  0  0  0  0  0  0  0  0  0
   -7.8170   -2.5500   -3.5360 C   0  0  0  0  0  0  0  0  0  0  0  0
   -6.9720   -3.3210   -2.7550 C   0  0  0  0  0  0  0  0  0  0  0  0
   -5.6390   -3.4770   -3.1110 C   0  0  0  0  0  0  0  0  0  0  0  0
   -5.1940   -2.8390   -4.2640 C   0  0  0  0  0  0  0  0  0  0  0  0
   -6.0850   -2.0780   -5.0070 C   0  0  0  0  0  0  0  0  0  0  0  0
   -7.3470   -1.9600   -4.6270 N   0  0  0  0  0  0  0  0  0  0  0  0
  -12.1450   -0.9640   -2.3390 O   0  0  0  0  0  0  0  0  0  0  0  0
  -18.7610   -1.8760   -2.7390 F   0  0  0  0  0  0  0  0  0  0  0  0
  -18.4550    0.3250   -2.2750 F   0  0  0  0  0  0  0  0  0  0  0  0
  -19.1950   -1.1300   -0.7370 F   0  0  0  0  0  0  0  0  0  0  0  0
   -9.7920   -3.7475   -2.8656 C   0  0  0  0  0  0  0  0  0  0  0  0
   -9.8302   -1.6953   -4.1360 F   0  0  0  0  0  0  0  0  0  0  0  0
  -10.9925   -4.1437   -3.7803 C   0  0  0  0  0  0  0  0  0  0  0  0
   -9.9872   -4.3862   -1.6681 C   0  0  0  0  0  0  0  0  0  0  0  0
  -11.0933   -5.1046   -1.8877 O   0  0  0  0  0  0  0  0  0  0  0  0
  -11.5429   -5.0899   -3.1463 C   0  0  0  0  0  0  0  0  0  0  0  0
  1  2  2  0
  2  3  1  0
  2 16  1  0
  3  4  1  0
  3  6  2  0
  4  5  1  0
  6  7  1  0
  7 15  1  0
  7  8  1  0
 11 12  1  0
 12 28  1  0
 12 27  1  0
 12 26  1  0
 15 16  1  0
 15 25  2  0
 16 17  1  0
 17 18  1  0
 18 19  1  0
 18 29  1  0
 18 30  1  0
 29 31  1  0
 29 32  1  0
 32 33  1  0
 31 34  2  0
 33 34  1  0
  8  9  2  0
  9 10  1  0
 10 11  2  0
 11 13  1  0
 13 14  2  0
 14  8  1  0
 19 20  2  0
 20 21  1  0
 21 22  2  0
 22 23  1  0
 23 24  2  0
 24 19  1  0
M  END

$$$$
No_338-gen_results_new/Mpro_new_generate_500/2024-01-19-21-58-56/
     RDKit          3D

 34 36  0  0  0  0  0  0  0  0999 V2000
   -9.1300   -2.9100    0.4520 O   0  0  0  0  0  0  0  0  0  0  0  0
  -10.2490   -2.6420    0.1800 C   0  0  0  0  0  0  0  0  0  0  0  0
  -11.3800   -3.0650    1.0860 C   0  0  0  0  0  0  0  0  0  0  0  0
  -11.2000   -3.8390    2.3880 C   0  0  0  0  0  0  0  0  0  0  0  0
  -10.9900   -5.0690    2.3420 N   0  0  0  0  0  0  0  0  0  0  0  0
  -12.7310   -2.7290    0.7330 N   0  0  0  0  0  0  0  0  0  0  0  0
  -12.9960   -1.9940   -0.4510 N   0  0  0  0  0  0  0  0  0  0  0  0
  -14.3580   -1.6940   -0.7530 C   0  0  0  0  0  0  0  0  0  0  0  0
  -15.0390   -0.7180   -0.0560 C   0  0  0  0  0  0  0  0  0  0  0  0
  -16.3510   -0.4690   -0.3980 C   0  0  0  0  0  0  0  0  0  0  0  0
  -16.9430   -1.2030   -1.4080 C   0  0  0  0  0  0  0  0  0  0  0  0
  -18.3840   -0.9560   -1.8060 C   0  0  0  0  0  0  0  0  0  0  0  0
  -16.2510   -2.1690   -2.1000 C   0  0  0  0  0  0  0  0  0  0  0  0
  -14.9490   -2.4160   -1.7590 C   0  0  0  0  0  0  0  0  0  0  0  0
  -11.9050   -1.5730   -1.3540 C   0  0  0  0  0  0  0  0  0  0  0  0
  -10.5280   -1.9050   -1.0240 N   0  0  0  0  0  0  0  0  0  0  0  0
   -9.4550   -1.4720   -1.9190 C   0  0  0  0  0  0  0  0  0  0  0  0
   -9.2820   -2.3940   -3.1270 C   0  0  0  0  0  0  0  0  0  0  0  0
   -7.8170   -2.5500   -3.5360 C   0  0  0  0  0  0  0  0  0  0  0  0
   -6.9720   -3.3210   -2.7550 C   0  0  0  0  0  0  0  0  0  0  0  0
   -5.6390   -3.4770   -3.1110 C   0  0  0  0  0  0  0  0  0  0  0  0
   -5.1940   -2.8390   -4.2640 C   0  0  0  0  0  0  0  0  0  0  0  0
   -6.0850   -2.0780   -5.0070 C   0  0  0  0  0  0  0  0  0  0  0  0
   -7.3470   -1.9600   -4.6270 N   0  0  0  0  0  0  0  0  0  0  0  0
  -12.1450   -0.9640   -2.3390 O   0  0  0  0  0  0  0  0  0  0  0  0
  -18.7610   -1.8760   -2.7390 F   0  0  0  0  0  0  0  0  0  0  0  0
  -18.4550    0.3250   -2.2750 F   0  0  0  0  0  0  0  0  0  0  0  0
  -19.1950   -1.1300   -0.7370 F   0  0  0  0  0  0  0  0  0  0  0  0
   -9.7920   -3.7475   -2.8656 C   0  0  0  0  0  0  0  0  0  0  0  0
  -10.0717   -1.8029   -4.3549 C   0  0  0  0  0  0  0  0  0  0  0  0
  -10.8091   -3.9382   -3.1276 O   0  0  0  0  0  0  0  0  0  0  0  0
   -9.4142   -4.5373   -2.0523 O   0  0  0  0  0  0  0  0  0  0  0  0
   -9.4906   -5.6290   -2.8381 C   0  0  0  0  0  0  0  0  0  0  0  0
   -9.2207   -6.1040   -1.6615 C   0  0  0  0  0  0  0  0  0  0  0  0
  1  2  2  0
  2  3  1  0
  2 16  1  0
  3  4  1  0
  3  6  2  0
  4  5  1  0
  6  7  1  0
  7 15  1  0
  7  8  1  0
 11 12  1  0
 12 28  1  0
 12 27  1  0
 12 26  1  0
 15 16  1  0
 15 25  2  0
 16 17  1  0
 17 18  1  0
 18 19  1  0
 18 29  1  0
 18 30  1  0
 29 31  2  0
 29 32  1  0
 32 33  1  0
 33 34  1  0
  8  9  2  0
  9 10  1  0
 10 11  2  0
 11 13  1  0
 13 14  2  0
 14  8  1  0
 19 20  2  0
 20 21  1  0
 21 22  2  0
 22 23  1  0
 23 24  2  0
 24 19  1  0
M  END

$$$$
No_339-gen_results_new/Mpro_new_generate_500/2024-01-19-21-58-56/
     RDKit          3D

 35 38  0  0  0  0  0  0  0  0999 V2000
   -9.1300   -2.9100    0.4520 O   0  0  0  0  0  0  0  0  0  0  0  0
  -10.2490   -2.6420    0.1800 C   0  0  0  0  0  0  0  0  0  0  0  0
  -11.3800   -3.0650    1.0860 C   0  0  0  0  0  0  0  0  0  0  0  0
  -11.2000   -3.8390    2.3880 C   0  0  0  0  0  0  0  0  0  0  0  0
  -10.9900   -5.0690    2.3420 N   0  0  0  0  0  0  0  0  0  0  0  0
  -12.7310   -2.7290    0.7330 N   0  0  0  0  0  0  0  0  0  0  0  0
  -12.9960   -1.9940   -0.4510 N   0  0  0  0  0  0  0  0  0  0  0  0
  -14.3580   -1.6940   -0.7530 C   0  0  0  0  0  0  0  0  0  0  0  0
  -15.0390   -0.7180   -0.0560 C   0  0  0  0  0  0  0  0  0  0  0  0
  -16.3510   -0.4690   -0.3980 C   0  0  0  0  0  0  0  0  0  0  0  0
  -16.9430   -1.2030   -1.4080 C   0  0  0  0  0  0  0  0  0  0  0  0
  -18.3840   -0.9560   -1.8060 C   0  0  0  0  0  0  0  0  0  0  0  0
  -16.2510   -2.1690   -2.1000 C   0  0  0  0  0  0  0  0  0  0  0  0
  -14.9490   -2.4160   -1.7590 C   0  0  0  0  0  0  0  0  0  0  0  0
  -11.9050   -1.5730   -1.3540 C   0  0  0  0  0  0  0  0  0  0  0  0
  -10.5280   -1.9050   -1.0240 N   0  0  0  0  0  0  0  0  0  0  0  0
   -9.4550   -1.4720   -1.9190 C   0  0  0  0  0  0  0  0  0  0  0  0
   -9.2820   -2.3940   -3.1270 C   0  0  0  0  0  0  0  0  0  0  0  0
   -7.8170   -2.5500   -3.5360 C   0  0  0  0  0  0  0  0  0  0  0  0
   -6.9720   -3.3210   -2.7550 C   0  0  0  0  0  0  0  0  0  0  0  0
   -5.6390   -3.4770   -3.1110 C   0  0  0  0  0  0  0  0  0  0  0  0
   -5.1940   -2.8390   -4.2640 C   0  0  0  0  0  0  0  0  0  0  0  0
   -6.0850   -2.0780   -5.0070 C   0  0  0  0  0  0  0  0  0  0  0  0
   -7.3470   -1.9600   -4.6270 N   0  0  0  0  0  0  0  0  0  0  0  0
  -12.1450   -0.9640   -2.3390 O   0  0  0  0  0  0  0  0  0  0  0  0
  -18.7610   -1.8760   -2.7390 F   0  0  0  0  0  0  0  0  0  0  0  0
  -18.4550    0.3250   -2.2750 F   0  0  0  0  0  0  0  0  0  0  0  0
  -19.1950   -1.1300   -0.7370 F   0  0  0  0  0  0  0  0  0  0  0  0
  -10.0453   -2.0069   -4.3181 C   0  0  0  0  0  0  0  0  0  0  0  0
   -9.8476   -3.8948   -2.8015 C   0  0  0  0  0  0  0  0  0  0  0  0
  -10.1714   -4.7331   -3.9309 C   0  0  0  0  0  0  0  0  0  0  0  0
  -10.1706   -6.0308   -3.5979 O   0  0  0  0  0  0  0  0  0  0  0  0
   -9.4459   -6.4041   -2.5012 C   0  0  0  0  0  0  0  0  0  0  0  0
   -8.5360   -7.2728   -2.4955 F   0  0  0  0  0  0  0  0  0  0  0  0
   -9.0990   -4.6706   -2.1743 O   0  0  0  0  0  0  0  0  0  0  0  0
  1  2  2  0
  2  3  1  0
  2 16  1  0
  3  4  1  0
  3  6  2  0
  4  5  1  0
  6  7  1  0
  7 15  1  0
  7  8  1  0
 11 12  1  0
 12 28  1  0
 12 27  1  0
 12 26  1  0
 15 16  1  0
 15 25  2  0
 16 17  1  0
 17 18  1  0
 18 19  1  0
 18 29  1  0
 18 30  1  0
 30 31  2  0
 31 32  1  0
 32 33  1  0
 33 34  1  0
 30 35  1  0
 33 35  1  0
  8  9  2  0
  9 10  1  0
 10 11  2  0
 11 13  1  0
 13 14  2  0
 14  8  1  0
 19 20  2  0
 20 21  1  0
 21 22  2  0
 22 23  1  0
 23 24  2  0
 24 19  1  0
M  END

$$$$
No_340-gen_results_new/Mpro_new_generate_500/2024-01-19-21-58-56/
     RDKit          3D

 32 35  0  0  0  0  0  0  0  0999 V2000
   -9.1300   -2.9100    0.4520 O   0  0  0  0  0  0  0  0  0  0  0  0
  -10.2490   -2.6420    0.1800 C   0  0  0  0  0  0  0  0  0  0  0  0
  -11.3800   -3.0650    1.0860 C   0  0  0  0  0  0  0  0  0  0  0  0
  -11.2000   -3.8390    2.3880 C   0  0  0  0  0  0  0  0  0  0  0  0
  -10.9900   -5.0690    2.3420 N   0  0  0  0  0  0  0  0  0  0  0  0
  -12.7310   -2.7290    0.7330 N   0  0  0  0  0  0  0  0  0  0  0  0
  -12.9960   -1.9940   -0.4510 N   0  0  0  0  0  0  0  0  0  0  0  0
  -14.3580   -1.6940   -0.7530 C   0  0  0  0  0  0  0  0  0  0  0  0
  -15.0390   -0.7180   -0.0560 C   0  0  0  0  0  0  0  0  0  0  0  0
  -16.3510   -0.4690   -0.3980 C   0  0  0  0  0  0  0  0  0  0  0  0
  -16.9430   -1.2030   -1.4080 C   0  0  0  0  0  0  0  0  0  0  0  0
  -18.3840   -0.9560   -1.8060 C   0  0  0  0  0  0  0  0  0  0  0  0
  -16.2510   -2.1690   -2.1000 C   0  0  0  0  0  0  0  0  0  0  0  0
  -14.9490   -2.4160   -1.7590 C   0  0  0  0  0  0  0  0  0  0  0  0
  -11.9050   -1.5730   -1.3540 C   0  0  0  0  0  0  0  0  0  0  0  0
  -10.5280   -1.9050   -1.0240 N   0  0  0  0  0  0  0  0  0  0  0  0
   -9.4550   -1.4720   -1.9190 C   0  0  0  0  0  0  0  0  0  0  0  0
   -9.2820   -2.3940   -3.1270 C   0  0  0  0  0  0  0  0  0  0  0  0
   -7.8170   -2.5500   -3.5360 C   0  0  0  0  0  0  0  0  0  0  0  0
   -6.9720   -3.3210   -2.7550 C   0  0  0  0  0  0  0  0  0  0  0  0
   -5.6390   -3.4770   -3.1110 C   0  0  0  0  0  0  0  0  0  0  0  0
   -5.1940   -2.8390   -4.2640 C   0  0  0  0  0  0  0  0  0  0  0  0
   -6.0850   -2.0780   -5.0070 C   0  0  0  0  0  0  0  0  0  0  0  0
   -7.3470   -1.9600   -4.6270 N   0  0  0  0  0  0  0  0  0  0  0  0
  -12.1450   -0.9640   -2.3390 O   0  0  0  0  0  0  0  0  0  0  0  0
  -18.7610   -1.8760   -2.7390 F   0  0  0  0  0  0  0  0  0  0  0  0
  -18.4550    0.3250   -2.2750 F   0  0  0  0  0  0  0  0  0  0  0  0
  -19.1950   -1.1300   -0.7370 F   0  0  0  0  0  0  0  0  0  0  0  0
   -9.7920   -3.7475   -2.8656 C   0  0  0  0  0  0  0  0  0  0  0  0
  -10.1387   -2.0206   -4.2903 C   0  0  0  0  0  0  0  0  0  0  0  0
  -10.7383   -4.2958   -3.7467 C   0  0  0  0  0  0  0  0  0  0  0  0
  -11.2648   -2.9811   -4.7219 S   0  0  0  0  0  0  0  0  0  0  0  0
  1  2  2  0
  2  3  1  0
  2 16  1  0
  3  4  1  0
  3  6  2  0
  4  5  1  0
  6  7  1  0
  7 15  1  0
  7  8  1  0
 11 12  1  0
 12 28  1  0
 12 27  1  0
 12 26  1  0
 15 16  1  0
 15 25  2  0
 16 17  1  0
 17 18  1  0
 18 19  1  0
 18 29  1  0
 18 30  1  0
 29 31  2  0
 30 32  1  0
 31 32  1  0
  8  9  2  0
  9 10  1  0
 10 11  2  0
 11 13  1  0
 13 14  2  0
 14  8  1  0
 19 20  2  0
 20 21  1  0
 21 22  2  0
 22 23  1  0
 23 24  2  0
 24 19  1  0
M  END

$$$$
No_341-gen_results_new/Mpro_new_generate_500/2024-01-19-21-58-56/
     RDKit          3D

 35 37  0  0  0  0  0  0  0  0999 V2000
   -9.1300   -2.9100    0.4520 O   0  0  0  0  0  0  0  0  0  0  0  0
  -10.2490   -2.6420    0.1800 C   0  0  0  0  0  0  0  0  0  0  0  0
  -11.3800   -3.0650    1.0860 C   0  0  0  0  0  0  0  0  0  0  0  0
  -11.2000   -3.8390    2.3880 C   0  0  0  0  0  0  0  0  0  0  0  0
  -10.9900   -5.0690    2.3420 N   0  0  0  0  0  0  0  0  0  0  0  0
  -12.7310   -2.7290    0.7330 N   0  0  0  0  0  0  0  0  0  0  0  0
  -12.9960   -1.9940   -0.4510 N   0  0  0  0  0  0  0  0  0  0  0  0
  -14.3580   -1.6940   -0.7530 C   0  0  0  0  0  0  0  0  0  0  0  0
  -15.0390   -0.7180   -0.0560 C   0  0  0  0  0  0  0  0  0  0  0  0
  -16.3510   -0.4690   -0.3980 C   0  0  0  0  0  0  0  0  0  0  0  0
  -16.9430   -1.2030   -1.4080 C   0  0  0  0  0  0  0  0  0  0  0  0
  -18.3840   -0.9560   -1.8060 C   0  0  0  0  0  0  0  0  0  0  0  0
  -16.2510   -2.1690   -2.1000 C   0  0  0  0  0  0  0  0  0  0  0  0
  -14.9490   -2.4160   -1.7590 C   0  0  0  0  0  0  0  0  0  0  0  0
  -11.9050   -1.5730   -1.3540 C   0  0  0  0  0  0  0  0  0  0  0  0
  -10.5280   -1.9050   -1.0240 N   0  0  0  0  0  0  0  0  0  0  0  0
   -9.4550   -1.4720   -1.9190 C   0  0  0  0  0  0  0  0  0  0  0  0
   -9.2820   -2.3940   -3.1270 C   0  0  0  0  0  0  0  0  0  0  0  0
   -7.8170   -2.5500   -3.5360 C   0  0  0  0  0  0  0  0  0  0  0  0
   -6.9720   -3.3210   -2.7550 C   0  0  0  0  0  0  0  0  0  0  0  0
   -5.6390   -3.4770   -3.1110 C   0  0  0  0  0  0  0  0  0  0  0  0
   -5.1940   -2.8390   -4.2640 C   0  0  0  0  0  0  0  0  0  0  0  0
   -6.0850   -2.0780   -5.0070 C   0  0  0  0  0  0  0  0  0  0  0  0
   -7.3470   -1.9600   -4.6270 N   0  0  0  0  0  0  0  0  0  0  0  0
  -12.1450   -0.9640   -2.3390 O   0  0  0  0  0  0  0  0  0  0  0  0
  -18.7610   -1.8760   -2.7390 F   0  0  0  0  0  0  0  0  0  0  0  0
  -18.4550    0.3250   -2.2750 F   0  0  0  0  0  0  0  0  0  0  0  0
  -19.1950   -1.1300   -0.7370 F   0  0  0  0  0  0  0  0  0  0  0  0
   -9.7920   -3.7475   -2.8656 C   0  0  0  0  0  0  0  0  0  0  0  0
  -10.0717   -1.8029   -4.3549 C   0  0  0  0  0  0  0  0  0  0  0  0
  -10.0419   -4.6597   -4.1091 C   0  0  0  0  0  0  0  0  0  0  0  0
   -9.2792   -5.5641   -4.5414 C   0  0  0  0  0  0  0  0  0  0  0  0
   -8.5386   -6.2606   -3.6329 O   0  0  0  0  0  0  0  0  0  0  0  0
   -7.2435   -6.5130   -3.9650 C   0  0  0  0  0  0  0  0  0  0  0  0
   -6.9706   -7.1081   -5.1169 C   0  0  0  0  0  0  0  0  0  0  0  0
  1  2  2  0
  2  3  1  0
  2 16  1  0
  3  4  1  0
  3  6  2  0
  4  5  1  0
  6  7  1  0
  7 15  1  0
  7  8  1  0
 11 12  1  0
 12 28  1  0
 12 27  1  0
 12 26  1  0
 15 16  1  0
 15 25  2  0
 16 17  1  0
 17 18  1  0
 18 19  1  0
 18 29  1  0
 18 30  1  0
 29 31  1  0
 31 32  2  3
 32 33  1  0
 33 34  1  0
 34 35  1  0
  8  9  2  0
  9 10  1  0
 10 11  2  0
 11 13  1  0
 13 14  2  0
 14  8  1  0
 19 20  2  0
 20 21  1  0
 21 22  2  0
 22 23  1  0
 23 24  2  0
 24 19  1  0
M  END

$$$$
No_342-gen_results_new/Mpro_new_generate_500/2024-01-19-21-58-56/
     RDKit          3D

 33 36  0  0  0  0  0  0  0  0999 V2000
   -9.1300   -2.9100    0.4520 O   0  0  0  0  0  0  0  0  0  0  0  0
  -10.2490   -2.6420    0.1800 C   0  0  0  0  0  0  0  0  0  0  0  0
  -11.3800   -3.0650    1.0860 C   0  0  0  0  0  0  0  0  0  0  0  0
  -11.2000   -3.8390    2.3880 C   0  0  0  0  0  0  0  0  0  0  0  0
  -10.9900   -5.0690    2.3420 N   0  0  0  0  0  0  0  0  0  0  0  0
  -12.7310   -2.7290    0.7330 N   0  0  0  0  0  0  0  0  0  0  0  0
  -12.9960   -1.9940   -0.4510 N   0  0  0  0  0  0  0  0  0  0  0  0
  -14.3580   -1.6940   -0.7530 C   0  0  0  0  0  0  0  0  0  0  0  0
  -15.0390   -0.7180   -0.0560 C   0  0  0  0  0  0  0  0  0  0  0  0
  -16.3510   -0.4690   -0.3980 C   0  0  0  0  0  0  0  0  0  0  0  0
  -16.9430   -1.2030   -1.4080 C   0  0  0  0  0  0  0  0  0  0  0  0
  -18.3840   -0.9560   -1.8060 C   0  0  0  0  0  0  0  0  0  0  0  0
  -16.2510   -2.1690   -2.1000 C   0  0  0  0  0  0  0  0  0  0  0  0
  -14.9490   -2.4160   -1.7590 C   0  0  0  0  0  0  0  0  0  0  0  0
  -11.9050   -1.5730   -1.3540 C   0  0  0  0  0  0  0  0  0  0  0  0
  -10.5280   -1.9050   -1.0240 N   0  0  0  0  0  0  0  0  0  0  0  0
   -9.4550   -1.4720   -1.9190 C   0  0  0  0  0  0  0  0  0  0  0  0
   -9.2820   -2.3940   -3.1270 C   0  0  0  0  0  0  0  0  0  0  0  0
   -7.8170   -2.5500   -3.5360 C   0  0  0  0  0  0  0  0  0  0  0  0
   -6.9720   -3.3210   -2.7550 C   0  0  0  0  0  0  0  0  0  0  0  0
   -5.6390   -3.4770   -3.1110 C   0  0  0  0  0  0  0  0  0  0  0  0
   -5.1940   -2.8390   -4.2640 C   0  0  0  0  0  0  0  0  0  0  0  0
   -6.0850   -2.0780   -5.0070 C   0  0  0  0  0  0  0  0  0  0  0  0
   -7.3470   -1.9600   -4.6270 N   0  0  0  0  0  0  0  0  0  0  0  0
  -12.1450   -0.9640   -2.3390 O   0  0  0  0  0  0  0  0  0  0  0  0
  -18.7610   -1.8760   -2.7390 F   0  0  0  0  0  0  0  0  0  0  0  0
  -18.4550    0.3250   -2.2750 F   0  0  0  0  0  0  0  0  0  0  0  0
  -19.1950   -1.1300   -0.7370 F   0  0  0  0  0  0  0  0  0  0  0  0
  -10.1467   -3.0903   -3.8357 C   0  0  0  0  0  0  0  0  0  0  0  0
  -10.1681   -2.5855   -3.6007 C   0  0  0  0  0  0  0  0  0  0  0  0
  -10.4499   -1.5957   -4.9129 C   0  0  0  0  0  0  0  0  0  0  0  0
  -11.2291   -3.9044   -4.0284 C   0  0  0  0  0  0  0  0  0  0  0  0
  -11.7629   -2.7690   -3.7896 O   0  0  0  0  0  0  0  0  0  0  0  0
  1  2  2  0
  2  3  1  0
  2 16  1  0
  3  4  1  0
  3  6  2  0
  4  5  1  0
  6  7  1  0
  7 15  1  0
  7  8  1  0
 11 12  1  0
 12 28  1  0
 12 27  1  0
 12 26  1  0
 15 16  1  0
 15 25  2  0
 16 17  1  0
 17 18  1  0
 18 19  1  0
 18 29  1  0
 29 30  1  0
 30 31  2  0
 29 32  1  0
 30 33  1  0
 32 33  1  0
  8  9  2  0
  9 10  1  0
 10 11  2  0
 11 13  1  0
 13 14  2  0
 14  8  1  0
 19 20  2  0
 20 21  1  0
 21 22  2  0
 22 23  1  0
 23 24  2  0
 24 19  1  0
M  END

$$$$
No_343-gen_results_new/Mpro_new_generate_500/2024-01-19-21-58-56/
     RDKit          3D

 35 37  0  0  0  0  0  0  0  0999 V2000
   -9.1300   -2.9100    0.4520 O   0  0  0  0  0  0  0  0  0  0  0  0
  -10.2490   -2.6420    0.1800 C   0  0  0  0  0  0  0  0  0  0  0  0
  -11.3800   -3.0650    1.0860 C   0  0  0  0  0  0  0  0  0  0  0  0
  -11.2000   -3.8390    2.3880 C   0  0  0  0  0  0  0  0  0  0  0  0
  -10.9900   -5.0690    2.3420 N   0  0  0  0  0  0  0  0  0  0  0  0
  -12.7310   -2.7290    0.7330 N   0  0  0  0  0  0  0  0  0  0  0  0
  -12.9960   -1.9940   -0.4510 N   0  0  0  0  0  0  0  0  0  0  0  0
  -14.3580   -1.6940   -0.7530 C   0  0  0  0  0  0  0  0  0  0  0  0
  -15.0390   -0.7180   -0.0560 C   0  0  0  0  0  0  0  0  0  0  0  0
  -16.3510   -0.4690   -0.3980 C   0  0  0  0  0  0  0  0  0  0  0  0
  -16.9430   -1.2030   -1.4080 C   0  0  0  0  0  0  0  0  0  0  0  0
  -18.3840   -0.9560   -1.8060 C   0  0  0  0  0  0  0  0  0  0  0  0
  -16.2510   -2.1690   -2.1000 C   0  0  0  0  0  0  0  0  0  0  0  0
  -14.9490   -2.4160   -1.7590 C   0  0  0  0  0  0  0  0  0  0  0  0
  -11.9050   -1.5730   -1.3540 C   0  0  0  0  0  0  0  0  0  0  0  0
  -10.5280   -1.9050   -1.0240 N   0  0  0  0  0  0  0  0  0  0  0  0
   -9.4550   -1.4720   -1.9190 C   0  0  0  0  0  0  0  0  0  0  0  0
   -9.2820   -2.3940   -3.1270 C   0  0  0  0  0  0  0  0  0  0  0  0
   -7.8170   -2.5500   -3.5360 C   0  0  0  0  0  0  0  0  0  0  0  0
   -6.9720   -3.3210   -2.7550 C   0  0  0  0  0  0  0  0  0  0  0  0
   -5.6390   -3.4770   -3.1110 C   0  0  0  0  0  0  0  0  0  0  0  0
   -5.1940   -2.8390   -4.2640 C   0  0  0  0  0  0  0  0  0  0  0  0
   -6.0850   -2.0780   -5.0070 C   0  0  0  0  0  0  0  0  0  0  0  0
   -7.3470   -1.9600   -4.6270 N   0  0  0  0  0  0  0  0  0  0  0  0
  -12.1450   -0.9640   -2.3390 O   0  0  0  0  0  0  0  0  0  0  0  0
  -18.7610   -1.8760   -2.7390 F   0  0  0  0  0  0  0  0  0  0  0  0
  -18.4550    0.3250   -2.2750 F   0  0  0  0  0  0  0  0  0  0  0  0
  -19.1950   -1.1300   -0.7370 F   0  0  0  0  0  0  0  0  0  0  0  0
   -9.7920   -3.7475   -2.8656 C   0  0  0  0  0  0  0  0  0  0  0  0
  -10.0717   -1.8029   -4.3549 C   0  0  0  0  0  0  0  0  0  0  0  0
   -9.2295   -4.7877   -2.1591 C   0  0  0  0  0  0  0  0  0  0  0  0
  -11.0250   -4.1168   -3.3136 O   0  0  0  0  0  0  0  0  0  0  0  0
  -11.9963   -4.8856   -3.5284 C   0  0  0  0  0  0  0  0  0  0  0  0
  -13.0749   -4.6972   -2.4071 C   0  0  0  0  0  0  0  0  0  0  0  0
  -14.2612   -5.6441   -2.5695 C   0  0  0  0  0  0  0  0  0  0  0  0
  1  2  2  0
  2  3  1  0
  2 16  1  0
  3  4  1  0
  3  6  2  0
  4  5  1  0
  6  7  1  0
  7 15  1  0
  7  8  1  0
 11 12  1  0
 12 28  1  0
 12 27  1  0
 12 26  1  0
 15 16  1  0
 15 25  2  0
 16 17  1  0
 17 18  1  0
 18 19  1  0
 18 29  1  0
 18 30  1  0
 29 31  2  0
 29 32  1  0
 32 33  1  0
 33 34  1  0
 34 35  1  0
  8  9  2  0
  9 10  1  0
 10 11  2  0
 11 13  1  0
 13 14  2  0
 14  8  1  0
 19 20  2  0
 20 21  1  0
 21 22  2  0
 22 23  1  0
 23 24  2  0
 24 19  1  0
M  END

$$$$
No_344-gen_results_new/Mpro_new_generate_500/2024-01-19-21-58-56/
     RDKit          3D

 35 37  0  0  0  0  0  0  0  0999 V2000
   -9.1300   -2.9100    0.4520 O   0  0  0  0  0  0  0  0  0  0  0  0
  -10.2490   -2.6420    0.1800 C   0  0  0  0  0  0  0  0  0  0  0  0
  -11.3800   -3.0650    1.0860 C   0  0  0  0  0  0  0  0  0  0  0  0
  -11.2000   -3.8390    2.3880 C   0  0  0  0  0  0  0  0  0  0  0  0
  -10.9900   -5.0690    2.3420 N   0  0  0  0  0  0  0  0  0  0  0  0
  -12.7310   -2.7290    0.7330 N   0  0  0  0  0  0  0  0  0  0  0  0
  -12.9960   -1.9940   -0.4510 N   0  0  0  0  0  0  0  0  0  0  0  0
  -14.3580   -1.6940   -0.7530 C   0  0  0  0  0  0  0  0  0  0  0  0
  -15.0390   -0.7180   -0.0560 C   0  0  0  0  0  0  0  0  0  0  0  0
  -16.3510   -0.4690   -0.3980 C   0  0  0  0  0  0  0  0  0  0  0  0
  -16.9430   -1.2030   -1.4080 C   0  0  0  0  0  0  0  0  0  0  0  0
  -18.3840   -0.9560   -1.8060 C   0  0  0  0  0  0  0  0  0  0  0  0
  -16.2510   -2.1690   -2.1000 C   0  0  0  0  0  0  0  0  0  0  0  0
  -14.9490   -2.4160   -1.7590 C   0  0  0  0  0  0  0  0  0  0  0  0
  -11.9050   -1.5730   -1.3540 C   0  0  0  0  0  0  0  0  0  0  0  0
  -10.5280   -1.9050   -1.0240 N   0  0  0  0  0  0  0  0  0  0  0  0
   -9.4550   -1.4720   -1.9190 C   0  0  0  0  0  0  0  0  0  0  0  0
   -9.2820   -2.3940   -3.1270 C   0  0  0  0  0  0  0  0  0  0  0  0
   -7.8170   -2.5500   -3.5360 C   0  0  0  0  0  0  0  0  0  0  0  0
   -6.9720   -3.3210   -2.7550 C   0  0  0  0  0  0  0  0  0  0  0  0
   -5.6390   -3.4770   -3.1110 C   0  0  0  0  0  0  0  0  0  0  0  0
   -5.1940   -2.8390   -4.2640 C   0  0  0  0  0  0  0  0  0  0  0  0
   -6.0850   -2.0780   -5.0070 C   0  0  0  0  0  0  0  0  0  0  0  0
   -7.3470   -1.9600   -4.6270 N   0  0  0  0  0  0  0  0  0  0  0  0
  -12.1450   -0.9640   -2.3390 O   0  0  0  0  0  0  0  0  0  0  0  0
  -18.7610   -1.8760   -2.7390 F   0  0  0  0  0  0  0  0  0  0  0  0
  -18.4550    0.3250   -2.2750 F   0  0  0  0  0  0  0  0  0  0  0  0
  -19.1950   -1.1300   -0.7370 F   0  0  0  0  0  0  0  0  0  0  0  0
  -10.0453   -2.0069   -4.3181 C   0  0  0  0  0  0  0  0  0  0  0  0
   -9.8476   -3.8948   -2.8015 C   0  0  0  0  0  0  0  0  0  0  0  0
  -10.9871   -4.2370   -3.4678 C   0  0  0  0  0  0  0  0  0  0  0  0
  -12.0609   -5.1160   -3.0647 C   0  0  0  0  0  0  0  0  0  0  0  0
  -13.2891   -4.4736   -2.4878 C   0  0  0  0  0  0  0  0  0  0  0  0
  -14.5640   -5.3628   -2.4118 C   0  0  0  0  0  0  0  0  0  0  0  0
   -9.4306   -5.2300   -2.2441 C   0  0  0  0  0  0  0  0  0  0  0  0
  1  2  2  0
  2  3  1  0
  2 16  1  0
  3  4  1  0
  3  6  2  0
  4  5  1  0
  6  7  1  0
  7 15  1  0
  7  8  1  0
 11 12  1  0
 12 28  1  0
 12 27  1  0
 12 26  1  0
 15 16  1  0
 15 25  2  0
 16 17  1  0
 17 18  1  0
 18 19  1  0
 18 29  1  0
 18 30  1  0
 30 31  1  0
 31 32  1  0
 32 33  1  0
 33 34  2  0
 30 35  1  0
  8  9  2  0
  9 10  1  0
 10 11  2  0
 11 13  1  0
 13 14  2  0
 14  8  1  0
 19 20  2  0
 20 21  1  0
 21 22  2  0
 22 23  1  0
 23 24  2  0
 24 19  1  0
M  END

$$$$
No_345-gen_results_new/Mpro_new_generate_500/2024-01-19-21-58-56/
     RDKit          3D

 34 36  0  0  0  0  0  0  0  0999 V2000
   -9.1300   -2.9100    0.4520 O   0  0  0  0  0  0  0  0  0  0  0  0
  -10.2490   -2.6420    0.1800 C   0  0  0  0  0  0  0  0  0  0  0  0
  -11.3800   -3.0650    1.0860 C   0  0  0  0  0  0  0  0  0  0  0  0
  -11.2000   -3.8390    2.3880 C   0  0  0  0  0  0  0  0  0  0  0  0
  -10.9900   -5.0690    2.3420 N   0  0  0  0  0  0  0  0  0  0  0  0
  -12.7310   -2.7290    0.7330 N   0  0  0  0  0  0  0  0  0  0  0  0
  -12.9960   -1.9940   -0.4510 N   0  0  0  0  0  0  0  0  0  0  0  0
  -14.3580   -1.6940   -0.7530 C   0  0  0  0  0  0  0  0  0  0  0  0
  -15.0390   -0.7180   -0.0560 C   0  0  0  0  0  0  0  0  0  0  0  0
  -16.3510   -0.4690   -0.3980 C   0  0  0  0  0  0  0  0  0  0  0  0
  -16.9430   -1.2030   -1.4080 C   0  0  0  0  0  0  0  0  0  0  0  0
  -18.3840   -0.9560   -1.8060 C   0  0  0  0  0  0  0  0  0  0  0  0
  -16.2510   -2.1690   -2.1000 C   0  0  0  0  0  0  0  0  0  0  0  0
  -14.9490   -2.4160   -1.7590 C   0  0  0  0  0  0  0  0  0  0  0  0
  -11.9050   -1.5730   -1.3540 C   0  0  0  0  0  0  0  0  0  0  0  0
  -10.5280   -1.9050   -1.0240 N   0  0  0  0  0  0  0  0  0  0  0  0
   -9.4550   -1.4720   -1.9190 C   0  0  0  0  0  0  0  0  0  0  0  0
   -9.2820   -2.3940   -3.1270 C   0  0  0  0  0  0  0  0  0  0  0  0
   -7.8170   -2.5500   -3.5360 C   0  0  0  0  0  0  0  0  0  0  0  0
   -6.9720   -3.3210   -2.7550 C   0  0  0  0  0  0  0  0  0  0  0  0
   -5.6390   -3.4770   -3.1110 C   0  0  0  0  0  0  0  0  0  0  0  0
   -5.1940   -2.8390   -4.2640 C   0  0  0  0  0  0  0  0  0  0  0  0
   -6.0850   -2.0780   -5.0070 C   0  0  0  0  0  0  0  0  0  0  0  0
   -7.3470   -1.9600   -4.6270 N   0  0  0  0  0  0  0  0  0  0  0  0
  -12.1450   -0.9640   -2.3390 O   0  0  0  0  0  0  0  0  0  0  0  0
  -18.7610   -1.8760   -2.7390 F   0  0  0  0  0  0  0  0  0  0  0  0
  -18.4550    0.3250   -2.2750 F   0  0  0  0  0  0  0  0  0  0  0  0
  -19.1950   -1.1300   -0.7370 F   0  0  0  0  0  0  0  0  0  0  0  0
  -10.0453   -2.0069   -4.3181 C   0  0  0  0  0  0  0  0  0  0  0  0
   -9.8029   -3.7797   -2.8149 O   0  0  0  0  0  0  0  0  0  0  0  0
  -11.0026   -3.0800   -4.9166 C   0  0  0  0  0  0  0  0  0  0  0  0
  -11.4917   -3.8260   -4.1213 O   0  0  0  0  0  0  0  0  0  0  0  0
  -10.5701   -4.6429   -2.5065 C   0  0  0  0  0  0  0  0  0  0  0  0
  -11.8278   -5.1817   -4.6317 C   0  0  0  0  0  0  0  0  0  0  0  0
  1  2  2  0
  2  3  1  0
  2 16  1  0
  3  4  1  0
  3  6  2  0
  4  5  1  0
  6  7  1  0
  7 15  1  0
  7  8  1  0
 11 12  1  0
 12 28  1  0
 12 27  1  0
 12 26  1  0
 15 16  1  0
 15 25  2  0
 16 17  1  0
 17 18  1  0
 18 19  1  0
 18 29  1  0
 18 30  1  0
 29 31  1  0
 31 32  1  0
 30 33  1  0
 32 34  1  0
  8  9  2  0
  9 10  1  0
 10 11  2  0
 11 13  1  0
 13 14  2  0
 14  8  1  0
 19 20  2  0
 20 21  1  0
 21 22  2  0
 22 23  1  0
 23 24  2  0
 24 19  1  0
M  END

$$$$
No_346-gen_results_new/Mpro_new_generate_500/2024-01-19-21-58-56/
     RDKit          3D

 33 35  0  0  0  0  0  0  0  0999 V2000
   -9.1300   -2.9100    0.4520 O   0  0  0  0  0  0  0  0  0  0  0  0
  -10.2490   -2.6420    0.1800 C   0  0  0  0  0  0  0  0  0  0  0  0
  -11.3800   -3.0650    1.0860 C   0  0  0  0  0  0  0  0  0  0  0  0
  -11.2000   -3.8390    2.3880 C   0  0  0  0  0  0  0  0  0  0  0  0
  -10.9900   -5.0690    2.3420 N   0  0  0  0  0  0  0  0  0  0  0  0
  -12.7310   -2.7290    0.7330 N   0  0  0  0  0  0  0  0  0  0  0  0
  -12.9960   -1.9940   -0.4510 N   0  0  0  0  0  0  0  0  0  0  0  0
  -14.3580   -1.6940   -0.7530 C   0  0  0  0  0  0  0  0  0  0  0  0
  -15.0390   -0.7180   -0.0560 C   0  0  0  0  0  0  0  0  0  0  0  0
  -16.3510   -0.4690   -0.3980 C   0  0  0  0  0  0  0  0  0  0  0  0
  -16.9430   -1.2030   -1.4080 C   0  0  0  0  0  0  0  0  0  0  0  0
  -18.3840   -0.9560   -1.8060 C   0  0  0  0  0  0  0  0  0  0  0  0
  -16.2510   -2.1690   -2.1000 C   0  0  0  0  0  0  0  0  0  0  0  0
  -14.9490   -2.4160   -1.7590 C   0  0  0  0  0  0  0  0  0  0  0  0
  -11.9050   -1.5730   -1.3540 C   0  0  0  0  0  0  0  0  0  0  0  0
  -10.5280   -1.9050   -1.0240 N   0  0  0  0  0  0  0  0  0  0  0  0
   -9.4550   -1.4720   -1.9190 C   0  0  0  0  0  0  0  0  0  0  0  0
   -9.2820   -2.3940   -3.1270 C   0  0  0  0  0  0  0  0  0  0  0  0
   -7.8170   -2.5500   -3.5360 C   0  0  0  0  0  0  0  0  0  0  0  0
   -6.9720   -3.3210   -2.7550 C   0  0  0  0  0  0  0  0  0  0  0  0
   -5.6390   -3.4770   -3.1110 C   0  0  0  0  0  0  0  0  0  0  0  0
   -5.1940   -2.8390   -4.2640 C   0  0  0  0  0  0  0  0  0  0  0  0
   -6.0850   -2.0780   -5.0070 C   0  0  0  0  0  0  0  0  0  0  0  0
   -7.3470   -1.9600   -4.6270 N   0  0  0  0  0  0  0  0  0  0  0  0
  -12.1450   -0.9640   -2.3390 O   0  0  0  0  0  0  0  0  0  0  0  0
  -18.7610   -1.8760   -2.7390 F   0  0  0  0  0  0  0  0  0  0  0  0
  -18.4550    0.3250   -2.2750 F   0  0  0  0  0  0  0  0  0  0  0  0
  -19.1950   -1.1300   -0.7370 F   0  0  0  0  0  0  0  0  0  0  0  0
  -10.1861   -2.0270   -4.5221 S   0  0  0  0  0  0  0  0  0  0  0  0
  -11.2503   -3.4188   -4.5381 C   0  0  0  0  0  0  0  0  0  0  0  0
  -11.0581   -0.6480   -4.4063 C   0  0  0  0  0  0  0  0  0  0  0  0
   -9.6262   -2.2280   -5.8291 O   0  0  0  0  0  0  0  0  0  0  0  0
  -10.2319    0.3884   -5.0420 C   0  0  0  0  0  0  0  0  0  0  0  0
  1  2  2  0
  2  3  1  0
  2 16  1  0
  3  4  1  0
  3  6  2  0
  4  5  1  0
  6  7  1  0
  7 15  1  0
  7  8  1  0
 11 12  1  0
 12 28  1  0
 12 27  1  0
 12 26  1  0
 15 16  1  0
 15 25  2  0
 16 17  1  0
 17 18  1  0
 18 19  1  0
 18 29  1  0
 29 30  1  0
 29 31  1  0
 29 32  2  0
 31 33  1  0
  8  9  2  0
  9 10  1  0
 10 11  2  0
 11 13  1  0
 13 14  2  0
 14  8  1  0
 19 20  2  0
 20 21  1  0
 21 22  2  0
 22 23  1  0
 23 24  2  0
 24 19  1  0
M  END

$$$$
No_347-gen_results_new/Mpro_new_generate_500/2024-01-19-21-58-56/
     RDKit          3D

 33 36  0  0  0  0  0  0  0  0999 V2000
   -9.1300   -2.9100    0.4520 O   0  0  0  0  0  0  0  0  0  0  0  0
  -10.2490   -2.6420    0.1800 C   0  0  0  0  0  0  0  0  0  0  0  0
  -11.3800   -3.0650    1.0860 C   0  0  0  0  0  0  0  0  0  0  0  0
  -11.2000   -3.8390    2.3880 C   0  0  0  0  0  0  0  0  0  0  0  0
  -10.9900   -5.0690    2.3420 N   0  0  0  0  0  0  0  0  0  0  0  0
  -12.7310   -2.7290    0.7330 N   0  0  0  0  0  0  0  0  0  0  0  0
  -12.9960   -1.9940   -0.4510 N   0  0  0  0  0  0  0  0  0  0  0  0
  -14.3580   -1.6940   -0.7530 C   0  0  0  0  0  0  0  0  0  0  0  0
  -15.0390   -0.7180   -0.0560 C   0  0  0  0  0  0  0  0  0  0  0  0
  -16.3510   -0.4690   -0.3980 C   0  0  0  0  0  0  0  0  0  0  0  0
  -16.9430   -1.2030   -1.4080 C   0  0  0  0  0  0  0  0  0  0  0  0
  -18.3840   -0.9560   -1.8060 C   0  0  0  0  0  0  0  0  0  0  0  0
  -16.2510   -2.1690   -2.1000 C   0  0  0  0  0  0  0  0  0  0  0  0
  -14.9490   -2.4160   -1.7590 C   0  0  0  0  0  0  0  0  0  0  0  0
  -11.9050   -1.5730   -1.3540 C   0  0  0  0  0  0  0  0  0  0  0  0
  -10.5280   -1.9050   -1.0240 N   0  0  0  0  0  0  0  0  0  0  0  0
   -9.4550   -1.4720   -1.9190 C   0  0  0  0  0  0  0  0  0  0  0  0
   -9.2820   -2.3940   -3.1270 C   0  0  0  0  0  0  0  0  0  0  0  0
   -7.8170   -2.5500   -3.5360 C   0  0  0  0  0  0  0  0  0  0  0  0
   -6.9720   -3.3210   -2.7550 C   0  0  0  0  0  0  0  0  0  0  0  0
   -5.6390   -3.4770   -3.1110 C   0  0  0  0  0  0  0  0  0  0  0  0
   -5.1940   -2.8390   -4.2640 C   0  0  0  0  0  0  0  0  0  0  0  0
   -6.0850   -2.0780   -5.0070 C   0  0  0  0  0  0  0  0  0  0  0  0
   -7.3470   -1.9600   -4.6270 N   0  0  0  0  0  0  0  0  0  0  0  0
  -12.1450   -0.9640   -2.3390 O   0  0  0  0  0  0  0  0  0  0  0  0
  -18.7610   -1.8760   -2.7390 F   0  0  0  0  0  0  0  0  0  0  0  0
  -18.4550    0.3250   -2.2750 F   0  0  0  0  0  0  0  0  0  0  0  0
  -19.1950   -1.1300   -0.7370 F   0  0  0  0  0  0  0  0  0  0  0  0
   -9.7561   -3.5765   -2.9053 O   0  0  0  0  0  0  0  0  0  0  0  0
  -10.1654   -2.2318   -4.2998 C   0  0  0  0  0  0  0  0  0  0  0  0
  -11.1514   -3.3323   -4.8277 C   0  0  0  0  0  0  0  0  0  0  0  0
  -10.8429   -4.2506   -3.3762 C   0  0  0  0  0  0  0  0  0  0  0  0
  -11.4478   -5.1646   -3.1129 O   0  0  0  0  0  0  0  0  0  0  0  0
  1  2  2  0
  2  3  1  0
  2 16  1  0
  3  4  1  0
  3  6  2  0
  4  5  1  0
  6  7  1  0
  7 15  1  0
  7  8  1  0
 11 12  1  0
 12 28  1  0
 12 27  1  0
 12 26  1  0
 15 16  1  0
 15 25  2  0
 16 17  1  0
 17 18  1  0
 18 19  1  0
 18 29  1  0
 18 30  1  0
 30 31  2  0
 29 32  1  0
 31 32  1  0
 32 33  2  0
  8  9  2  0
  9 10  1  0
 10 11  2  0
 11 13  1  0
 13 14  2  0
 14  8  1  0
 19 20  2  0
 20 21  1  0
 21 22  2  0
 22 23  1  0
 23 24  2  0
 24 19  1  0
M  END

$$$$
No_348-gen_results_new/Mpro_new_generate_500/2024-01-19-21-58-56/
     RDKit          3D

 35 37  0  0  0  0  0  0  0  0999 V2000
   -9.1300   -2.9100    0.4520 O   0  0  0  0  0  0  0  0  0  0  0  0
  -10.2490   -2.6420    0.1800 C   0  0  0  0  0  0  0  0  0  0  0  0
  -11.3800   -3.0650    1.0860 C   0  0  0  0  0  0  0  0  0  0  0  0
  -11.2000   -3.8390    2.3880 C   0  0  0  0  0  0  0  0  0  0  0  0
  -10.9900   -5.0690    2.3420 N   0  0  0  0  0  0  0  0  0  0  0  0
  -12.7310   -2.7290    0.7330 N   0  0  0  0  0  0  0  0  0  0  0  0
  -12.9960   -1.9940   -0.4510 N   0  0  0  0  0  0  0  0  0  0  0  0
  -14.3580   -1.6940   -0.7530 C   0  0  0  0  0  0  0  0  0  0  0  0
  -15.0390   -0.7180   -0.0560 C   0  0  0  0  0  0  0  0  0  0  0  0
  -16.3510   -0.4690   -0.3980 C   0  0  0  0  0  0  0  0  0  0  0  0
  -16.9430   -1.2030   -1.4080 C   0  0  0  0  0  0  0  0  0  0  0  0
  -18.3840   -0.9560   -1.8060 C   0  0  0  0  0  0  0  0  0  0  0  0
  -16.2510   -2.1690   -2.1000 C   0  0  0  0  0  0  0  0  0  0  0  0
  -14.9490   -2.4160   -1.7590 C   0  0  0  0  0  0  0  0  0  0  0  0
  -11.9050   -1.5730   -1.3540 C   0  0  0  0  0  0  0  0  0  0  0  0
  -10.5280   -1.9050   -1.0240 N   0  0  0  0  0  0  0  0  0  0  0  0
   -9.4550   -1.4720   -1.9190 C   0  0  0  0  0  0  0  0  0  0  0  0
   -9.2820   -2.3940   -3.1270 C   0  0  0  0  0  0  0  0  0  0  0  0
   -7.8170   -2.5500   -3.5360 C   0  0  0  0  0  0  0  0  0  0  0  0
   -6.9720   -3.3210   -2.7550 C   0  0  0  0  0  0  0  0  0  0  0  0
   -5.6390   -3.4770   -3.1110 C   0  0  0  0  0  0  0  0  0  0  0  0
   -5.1940   -2.8390   -4.2640 C   0  0  0  0  0  0  0  0  0  0  0  0
   -6.0850   -2.0780   -5.0070 C   0  0  0  0  0  0  0  0  0  0  0  0
   -7.3470   -1.9600   -4.6270 N   0  0  0  0  0  0  0  0  0  0  0  0
  -12.1450   -0.9640   -2.3390 O   0  0  0  0  0  0  0  0  0  0  0  0
  -18.7610   -1.8760   -2.7390 F   0  0  0  0  0  0  0  0  0  0  0  0
  -18.4550    0.3250   -2.2750 F   0  0  0  0  0  0  0  0  0  0  0  0
  -19.1950   -1.1300   -0.7370 F   0  0  0  0  0  0  0  0  0  0  0  0
  -10.0453   -2.0069   -4.3181 C   0  0  0  0  0  0  0  0  0  0  0  0
   -9.8476   -3.8948   -2.8015 C   0  0  0  0  0  0  0  0  0  0  0  0
   -9.1680   -4.8526   -2.1325 C   0  0  0  0  0  0  0  0  0  0  0  0
  -10.7590   -4.4411   -3.6750 C   0  0  0  0  0  0  0  0  0  0  0  0
   -9.3971   -4.9933   -0.8797 O   0  0  0  0  0  0  0  0  0  0  0  0
   -8.1522   -5.4212   -2.4663 O   0  0  0  0  0  0  0  0  0  0  0  0
   -9.4734   -6.4305   -0.6281 C   0  0  0  0  0  0  0  0  0  0  0  0
  1  2  2  0
  2  3  1  0
  2 16  1  0
  3  4  1  0
  3  6  2  0
  4  5  1  0
  6  7  1  0
  7 15  1  0
  7  8  1  0
 11 12  1  0
 12 28  1  0
 12 27  1  0
 12 26  1  0
 15 16  1  0
 15 25  2  0
 16 17  1  0
 17 18  1  0
 18 19  1  0
 18 29  1  0
 18 30  1  0
 30 31  1  0
 30 32  1  0
 31 33  1  0
 31 34  2  0
 33 35  1  0
  8  9  2  0
  9 10  1  0
 10 11  2  0
 11 13  1  0
 13 14  2  0
 14  8  1  0
 19 20  2  0
 20 21  1  0
 21 22  2  0
 22 23  1  0
 23 24  2  0
 24 19  1  0
M  END

$$$$
No_349-gen_results_new/Mpro_new_generate_500/2024-01-19-21-58-56/
     RDKit          3D

 35 38  0  0  0  0  0  0  0  0999 V2000
   -9.1300   -2.9100    0.4520 O   0  0  0  0  0  0  0  0  0  0  0  0
  -10.2490   -2.6420    0.1800 C   0  0  0  0  0  0  0  0  0  0  0  0
  -11.3800   -3.0650    1.0860 C   0  0  0  0  0  0  0  0  0  0  0  0
  -11.2000   -3.8390    2.3880 C   0  0  0  0  0  0  0  0  0  0  0  0
  -10.9900   -5.0690    2.3420 N   0  0  0  0  0  0  0  0  0  0  0  0
  -12.7310   -2.7290    0.7330 N   0  0  0  0  0  0  0  0  0  0  0  0
  -12.9960   -1.9940   -0.4510 N   0  0  0  0  0  0  0  0  0  0  0  0
  -14.3580   -1.6940   -0.7530 C   0  0  0  0  0  0  0  0  0  0  0  0
  -15.0390   -0.7180   -0.0560 C   0  0  0  0  0  0  0  0  0  0  0  0
  -16.3510   -0.4690   -0.3980 C   0  0  0  0  0  0  0  0  0  0  0  0
  -16.9430   -1.2030   -1.4080 C   0  0  0  0  0  0  0  0  0  0  0  0
  -18.3840   -0.9560   -1.8060 C   0  0  0  0  0  0  0  0  0  0  0  0
  -16.2510   -2.1690   -2.1000 C   0  0  0  0  0  0  0  0  0  0  0  0
  -14.9490   -2.4160   -1.7590 C   0  0  0  0  0  0  0  0  0  0  0  0
  -11.9050   -1.5730   -1.3540 C   0  0  0  0  0  0  0  0  0  0  0  0
  -10.5280   -1.9050   -1.0240 N   0  0  0  0  0  0  0  0  0  0  0  0
   -9.4550   -1.4720   -1.9190 C   0  0  0  0  0  0  0  0  0  0  0  0
   -9.2820   -2.3940   -3.1270 C   0  0  0  0  0  0  0  0  0  0  0  0
   -7.8170   -2.5500   -3.5360 C   0  0  0  0  0  0  0  0  0  0  0  0
   -6.9720   -3.3210   -2.7550 C   0  0  0  0  0  0  0  0  0  0  0  0
   -5.6390   -3.4770   -3.1110 C   0  0  0  0  0  0  0  0  0  0  0  0
   -5.1940   -2.8390   -4.2640 C   0  0  0  0  0  0  0  0  0  0  0  0
   -6.0850   -2.0780   -5.0070 C   0  0  0  0  0  0  0  0  0  0  0  0
   -7.3470   -1.9600   -4.6270 N   0  0  0  0  0  0  0  0  0  0  0  0
  -12.1450   -0.9640   -2.3390 O   0  0  0  0  0  0  0  0  0  0  0  0
  -18.7610   -1.8760   -2.7390 F   0  0  0  0  0  0  0  0  0  0  0  0
  -18.4550    0.3250   -2.2750 F   0  0  0  0  0  0  0  0  0  0  0  0
  -19.1950   -1.1300   -0.7370 F   0  0  0  0  0  0  0  0  0  0  0  0
   -9.7920   -3.7475   -2.8656 C   0  0  0  0  0  0  0  0  0  0  0  0
  -10.0717   -1.8029   -4.3549 C   0  0  0  0  0  0  0  0  0  0  0  0
  -10.0419   -4.6597   -4.1091 C   0  0  0  0  0  0  0  0  0  0  0  0
  -10.3271   -4.0944   -5.2068 O   0  0  0  0  0  0  0  0  0  0  0  0
  -10.6195   -2.6984   -5.2717 C   0  0  0  0  0  0  0  0  0  0  0  0
  -10.7408   -2.1947   -6.6648 C   0  0  0  0  0  0  0  0  0  0  0  0
  -11.6500   -1.4094   -6.6383 F   0  0  0  0  0  0  0  0  0  0  0  0
  1  2  2  0
  2  3  1  0
  2 16  1  0
  3  4  1  0
  3  6  2  0
  4  5  1  0
  6  7  1  0
  7 15  1  0
  7  8  1  0
 11 12  1  0
 12 28  1  0
 12 27  1  0
 12 26  1  0
 15 16  1  0
 15 25  2  0
 16 17  1  0
 17 18  1  0
 18 19  1  0
 18 29  1  0
 18 30  1  0
 29 31  2  0
 31 32  1  0
 30 33  1  0
 32 33  1  0
 33 34  1  0
 34 35  1  0
  8  9  2  0
  9 10  1  0
 10 11  2  0
 11 13  1  0
 13 14  2  0
 14  8  1  0
 19 20  2  0
 20 21  1  0
 21 22  2  0
 22 23  1  0
 23 24  2  0
 24 19  1  0
M  END

$$$$
No_350-gen_results_new/Mpro_new_generate_500/2024-01-19-21-58-56/
     RDKit          3D

 34 37  0  0  0  0  0  0  0  0999 V2000
   -9.1300   -2.9100    0.4520 O   0  0  0  0  0  0  0  0  0  0  0  0
  -10.2490   -2.6420    0.1800 C   0  0  0  0  0  0  0  0  0  0  0  0
  -11.3800   -3.0650    1.0860 C   0  0  0  0  0  0  0  0  0  0  0  0
  -11.2000   -3.8390    2.3880 C   0  0  0  0  0  0  0  0  0  0  0  0
  -10.9900   -5.0690    2.3420 N   0  0  0  0  0  0  0  0  0  0  0  0
  -12.7310   -2.7290    0.7330 N   0  0  0  0  0  0  0  0  0  0  0  0
  -12.9960   -1.9940   -0.4510 N   0  0  0  0  0  0  0  0  0  0  0  0
  -14.3580   -1.6940   -0.7530 C   0  0  0  0  0  0  0  0  0  0  0  0
  -15.0390   -0.7180   -0.0560 C   0  0  0  0  0  0  0  0  0  0  0  0
  -16.3510   -0.4690   -0.3980 C   0  0  0  0  0  0  0  0  0  0  0  0
  -16.9430   -1.2030   -1.4080 C   0  0  0  0  0  0  0  0  0  0  0  0
  -18.3840   -0.9560   -1.8060 C   0  0  0  0  0  0  0  0  0  0  0  0
  -16.2510   -2.1690   -2.1000 C   0  0  0  0  0  0  0  0  0  0  0  0
  -14.9490   -2.4160   -1.7590 C   0  0  0  0  0  0  0  0  0  0  0  0
  -11.9050   -1.5730   -1.3540 C   0  0  0  0  0  0  0  0  0  0  0  0
  -10.5280   -1.9050   -1.0240 N   0  0  0  0  0  0  0  0  0  0  0  0
   -9.4550   -1.4720   -1.9190 C   0  0  0  0  0  0  0  0  0  0  0  0
   -9.2820   -2.3940   -3.1270 C   0  0  0  0  0  0  0  0  0  0  0  0
   -7.8170   -2.5500   -3.5360 C   0  0  0  0  0  0  0  0  0  0  0  0
   -6.9720   -3.3210   -2.7550 C   0  0  0  0  0  0  0  0  0  0  0  0
   -5.6390   -3.4770   -3.1110 C   0  0  0  0  0  0  0  0  0  0  0  0
   -5.1940   -2.8390   -4.2640 C   0  0  0  0  0  0  0  0  0  0  0  0
   -6.0850   -2.0780   -5.0070 C   0  0  0  0  0  0  0  0  0  0  0  0
   -7.3470   -1.9600   -4.6270 N   0  0  0  0  0  0  0  0  0  0  0  0
  -12.1450   -0.9640   -2.3390 O   0  0  0  0  0  0  0  0  0  0  0  0
  -18.7610   -1.8760   -2.7390 F   0  0  0  0  0  0  0  0  0  0  0  0
  -18.4550    0.3250   -2.2750 F   0  0  0  0  0  0  0  0  0  0  0  0
  -19.1950   -1.1300   -0.7370 F   0  0  0  0  0  0  0  0  0  0  0  0
  -10.0453   -2.0069   -4.3181 C   0  0  0  0  0  0  0  0  0  0  0  0
   -9.8476   -3.8948   -2.8015 C   0  0  0  0  0  0  0  0  0  0  0  0
  -10.1714   -4.7331   -3.9309 C   0  0  0  0  0  0  0  0  0  0  0  0
  -10.6874   -3.2977   -5.1696 S   0  0  0  0  0  0  0  0  0  0  0  0
   -9.9262   -3.5890   -6.6781 C   0  0  0  0  0  0  0  0  0  0  0  0
  -12.0296   -3.2273   -4.2921 O   0  0  0  0  0  0  0  0  0  0  0  0
  1  2  2  0
  2  3  1  0
  2 16  1  0
  3  4  1  0
  3  6  2  0
  4  5  1  0
  6  7  1  0
  7 15  1  0
  7  8  1  0
 11 12  1  0
 12 28  1  0
 12 27  1  0
 12 26  1  0
 15 16  1  0
 15 25  2  0
 16 17  1  0
 17 18  1  0
 18 19  1  0
 18 29  1  0
 18 30  1  0
 30 31  2  0
 29 32  1  0
 31 32  1  0
 32 33  1  0
 32 34  2  0
  8  9  2  0
  9 10  1  0
 10 11  2  0
 11 13  1  0
 13 14  2  0
 14  8  1  0
 19 20  2  0
 20 21  1  0
 21 22  2  0
 22 23  1  0
 23 24  2  0
 24 19  1  0
M  END

$$$$
No_351-gen_results_new/Mpro_new_generate_500/2024-01-19-21-58-56/
     RDKit          3D

 35 38  0  0  0  0  0  0  0  0999 V2000
   -9.1300   -2.9100    0.4520 O   0  0  0  0  0  0  0  0  0  0  0  0
  -10.2490   -2.6420    0.1800 C   0  0  0  0  0  0  0  0  0  0  0  0
  -11.3800   -3.0650    1.0860 C   0  0  0  0  0  0  0  0  0  0  0  0
  -11.2000   -3.8390    2.3880 C   0  0  0  0  0  0  0  0  0  0  0  0
  -10.9900   -5.0690    2.3420 N   0  0  0  0  0  0  0  0  0  0  0  0
  -12.7310   -2.7290    0.7330 N   0  0  0  0  0  0  0  0  0  0  0  0
  -12.9960   -1.9940   -0.4510 N   0  0  0  0  0  0  0  0  0  0  0  0
  -14.3580   -1.6940   -0.7530 C   0  0  0  0  0  0  0  0  0  0  0  0
  -15.0390   -0.7180   -0.0560 C   0  0  0  0  0  0  0  0  0  0  0  0
  -16.3510   -0.4690   -0.3980 C   0  0  0  0  0  0  0  0  0  0  0  0
  -16.9430   -1.2030   -1.4080 C   0  0  0  0  0  0  0  0  0  0  0  0
  -18.3840   -0.9560   -1.8060 C   0  0  0  0  0  0  0  0  0  0  0  0
  -16.2510   -2.1690   -2.1000 C   0  0  0  0  0  0  0  0  0  0  0  0
  -14.9490   -2.4160   -1.7590 C   0  0  0  0  0  0  0  0  0  0  0  0
  -11.9050   -1.5730   -1.3540 C   0  0  0  0  0  0  0  0  0  0  0  0
  -10.5280   -1.9050   -1.0240 N   0  0  0  0  0  0  0  0  0  0  0  0
   -9.4550   -1.4720   -1.9190 C   0  0  0  0  0  0  0  0  0  0  0  0
   -9.2820   -2.3940   -3.1270 C   0  0  0  0  0  0  0  0  0  0  0  0
   -7.8170   -2.5500   -3.5360 C   0  0  0  0  0  0  0  0  0  0  0  0
   -6.9720   -3.3210   -2.7550 C   0  0  0  0  0  0  0  0  0  0  0  0
   -5.6390   -3.4770   -3.1110 C   0  0  0  0  0  0  0  0  0  0  0  0
   -5.1940   -2.8390   -4.2640 C   0  0  0  0  0  0  0  0  0  0  0  0
   -6.0850   -2.0780   -5.0070 C   0  0  0  0  0  0  0  0  0  0  0  0
   -7.3470   -1.9600   -4.6270 N   0  0  0  0  0  0  0  0  0  0  0  0
  -12.1450   -0.9640   -2.3390 O   0  0  0  0  0  0  0  0  0  0  0  0
  -18.7610   -1.8760   -2.7390 F   0  0  0  0  0  0  0  0  0  0  0  0
  -18.4550    0.3250   -2.2750 F   0  0  0  0  0  0  0  0  0  0  0  0
  -19.1950   -1.1300   -0.7370 F   0  0  0  0  0  0  0  0  0  0  0  0
  -10.1467   -3.0903   -3.8357 C   0  0  0  0  0  0  0  0  0  0  0  0
  -10.1748   -2.6832   -3.5186 O   0  0  0  0  0  0  0  0  0  0  0  0
  -10.7471   -2.9983   -4.5745 C   0  0  0  0  0  0  0  0  0  0  0  0
  -10.5504   -3.6142   -3.7226 C   0  0  0  0  0  0  0  0  0  0  0  0
  -10.7340   -4.6384   -4.1462 C   0  0  0  0  0  0  0  0  0  0  0  0
  -11.1177   -2.5596   -5.5286 O   0  0  0  0  0  0  0  0  0  0  0  0
  -11.3423   -3.8535   -5.1023 C   0  0  0  0  0  0  0  0  0  0  0  0
  1  2  2  0
  2  3  1  0
  2 16  1  0
  3  4  1  0
  3  6  2  0
  4  5  1  0
  6  7  1  0
  7 15  1  0
  7  8  1  0
 11 12  1  0
 12 28  1  0
 12 27  1  0
 12 26  1  0
 15 16  1  0
 15 25  2  0
 16 17  1  0
 17 18  1  0
 18 19  1  0
 18 29  1  0
 29 30  1  0
 29 31  1  0
 30 32  1  0
 32 33  2  0
 31 34  2  0
 31 35  1  0
 33 35  1  0
  8  9  2  0
  9 10  1  0
 10 11  2  0
 11 13  1  0
 13 14  2  0
 14  8  1  0
 19 20  2  0
 20 21  1  0
 21 22  2  0
 22 23  1  0
 23 24  2  0
 24 19  1  0
M  END

$$$$
No_352-gen_results_new/Mpro_new_generate_500/2024-01-19-21-58-56/
     RDKit          3D

 35 38  0  0  0  0  0  0  0  0999 V2000
   -9.1300   -2.9100    0.4520 O   0  0  0  0  0  0  0  0  0  0  0  0
  -10.2490   -2.6420    0.1800 C   0  0  0  0  0  0  0  0  0  0  0  0
  -11.3800   -3.0650    1.0860 C   0  0  0  0  0  0  0  0  0  0  0  0
  -11.2000   -3.8390    2.3880 C   0  0  0  0  0  0  0  0  0  0  0  0
  -10.9900   -5.0690    2.3420 N   0  0  0  0  0  0  0  0  0  0  0  0
  -12.7310   -2.7290    0.7330 N   0  0  0  0  0  0  0  0  0  0  0  0
  -12.9960   -1.9940   -0.4510 N   0  0  0  0  0  0  0  0  0  0  0  0
  -14.3580   -1.6940   -0.7530 C   0  0  0  0  0  0  0  0  0  0  0  0
  -15.0390   -0.7180   -0.0560 C   0  0  0  0  0  0  0  0  0  0  0  0
  -16.3510   -0.4690   -0.3980 C   0  0  0  0  0  0  0  0  0  0  0  0
  -16.9430   -1.2030   -1.4080 C   0  0  0  0  0  0  0  0  0  0  0  0
  -18.3840   -0.9560   -1.8060 C   0  0  0  0  0  0  0  0  0  0  0  0
  -16.2510   -2.1690   -2.1000 C   0  0  0  0  0  0  0  0  0  0  0  0
  -14.9490   -2.4160   -1.7590 C   0  0  0  0  0  0  0  0  0  0  0  0
  -11.9050   -1.5730   -1.3540 C   0  0  0  0  0  0  0  0  0  0  0  0
  -10.5280   -1.9050   -1.0240 N   0  0  0  0  0  0  0  0  0  0  0  0
   -9.4550   -1.4720   -1.9190 C   0  0  0  0  0  0  0  0  0  0  0  0
   -9.2820   -2.3940   -3.1270 C   0  0  0  0  0  0  0  0  0  0  0  0
   -7.8170   -2.5500   -3.5360 C   0  0  0  0  0  0  0  0  0  0  0  0
   -6.9720   -3.3210   -2.7550 C   0  0  0  0  0  0  0  0  0  0  0  0
   -5.6390   -3.4770   -3.1110 C   0  0  0  0  0  0  0  0  0  0  0  0
   -5.1940   -2.8390   -4.2640 C   0  0  0  0  0  0  0  0  0  0  0  0
   -6.0850   -2.0780   -5.0070 C   0  0  0  0  0  0  0  0  0  0  0  0
   -7.3470   -1.9600   -4.6270 N   0  0  0  0  0  0  0  0  0  0  0  0
  -12.1450   -0.9640   -2.3390 O   0  0  0  0  0  0  0  0  0  0  0  0
  -18.7610   -1.8760   -2.7390 F   0  0  0  0  0  0  0  0  0  0  0  0
  -18.4550    0.3250   -2.2750 F   0  0  0  0  0  0  0  0  0  0  0  0
  -19.1950   -1.1300   -0.7370 F   0  0  0  0  0  0  0  0  0  0  0  0
  -10.0453   -2.0069   -4.3181 C   0  0  0  0  0  0  0  0  0  0  0  0
   -9.8476   -3.8948   -2.8015 C   0  0  0  0  0  0  0  0  0  0  0  0
  -10.9871   -4.2370   -3.4678 C   0  0  0  0  0  0  0  0  0  0  0  0
  -11.0932   -2.9485   -4.4299 C   0  0  0  0  0  0  0  0  0  0  0  0
  -10.0685   -0.9364   -4.8529 O   0  0  0  0  0  0  0  0  0  0  0  0
   -9.4764   -4.7367   -1.9554 O   0  0  0  0  0  0  0  0  0  0  0  0
  -12.0933   -4.4086   -2.8623 F   0  0  0  0  0  0  0  0  0  0  0  0
  1  2  2  0
  2  3  1  0
  2 16  1  0
  3  4  1  0
  3  6  2  0
  4  5  1  0
  6  7  1  0
  7 15  1  0
  7  8  1  0
 11 12  1  0
 12 28  1  0
 12 27  1  0
 12 26  1  0
 15 16  1  0
 15 25  2  0
 16 17  1  0
 17 18  1  0
 18 19  1  0
 18 29  1  0
 18 30  1  0
 30 31  1  0
 29 32  1  0
 31 32  2  0
 29 33  2  0
 30 34  2  0
 31 35  1  0
  8  9  2  0
  9 10  1  0
 10 11  2  0
 11 13  1  0
 13 14  2  0
 14  8  1  0
 19 20  2  0
 20 21  1  0
 21 22  2  0
 22 23  1  0
 23 24  2  0
 24 19  1  0
M  END

$$$$
No_353-gen_results_new/Mpro_new_generate_500/2024-01-19-21-58-56/
     RDKit          3D

 35 37  0  0  0  0  0  0  0  0999 V2000
   -9.1300   -2.9100    0.4520 O   0  0  0  0  0  0  0  0  0  0  0  0
  -10.2490   -2.6420    0.1800 C   0  0  0  0  0  0  0  0  0  0  0  0
  -11.3800   -3.0650    1.0860 C   0  0  0  0  0  0  0  0  0  0  0  0
  -11.2000   -3.8390    2.3880 C   0  0  0  0  0  0  0  0  0  0  0  0
  -10.9900   -5.0690    2.3420 N   0  0  0  0  0  0  0  0  0  0  0  0
  -12.7310   -2.7290    0.7330 N   0  0  0  0  0  0  0  0  0  0  0  0
  -12.9960   -1.9940   -0.4510 N   0  0  0  0  0  0  0  0  0  0  0  0
  -14.3580   -1.6940   -0.7530 C   0  0  0  0  0  0  0  0  0  0  0  0
  -15.0390   -0.7180   -0.0560 C   0  0  0  0  0  0  0  0  0  0  0  0
  -16.3510   -0.4690   -0.3980 C   0  0  0  0  0  0  0  0  0  0  0  0
  -16.9430   -1.2030   -1.4080 C   0  0  0  0  0  0  0  0  0  0  0  0
  -18.3840   -0.9560   -1.8060 C   0  0  0  0  0  0  0  0  0  0  0  0
  -16.2510   -2.1690   -2.1000 C   0  0  0  0  0  0  0  0  0  0  0  0
  -14.9490   -2.4160   -1.7590 C   0  0  0  0  0  0  0  0  0  0  0  0
  -11.9050   -1.5730   -1.3540 C   0  0  0  0  0  0  0  0  0  0  0  0
  -10.5280   -1.9050   -1.0240 N   0  0  0  0  0  0  0  0  0  0  0  0
   -9.4550   -1.4720   -1.9190 C   0  0  0  0  0  0  0  0  0  0  0  0
   -9.2820   -2.3940   -3.1270 C   0  0  0  0  0  0  0  0  0  0  0  0
   -7.8170   -2.5500   -3.5360 C   0  0  0  0  0  0  0  0  0  0  0  0
   -6.9720   -3.3210   -2.7550 C   0  0  0  0  0  0  0  0  0  0  0  0
   -5.6390   -3.4770   -3.1110 C   0  0  0  0  0  0  0  0  0  0  0  0
   -5.1940   -2.8390   -4.2640 C   0  0  0  0  0  0  0  0  0  0  0  0
   -6.0850   -2.0780   -5.0070 C   0  0  0  0  0  0  0  0  0  0  0  0
   -7.3470   -1.9600   -4.6270 N   0  0  0  0  0  0  0  0  0  0  0  0
  -12.1450   -0.9640   -2.3390 O   0  0  0  0  0  0  0  0  0  0  0  0
  -18.7610   -1.8760   -2.7390 F   0  0  0  0  0  0  0  0  0  0  0  0
  -18.4550    0.3250   -2.2750 F   0  0  0  0  0  0  0  0  0  0  0  0
  -19.1950   -1.1300   -0.7370 F   0  0  0  0  0  0  0  0  0  0  0  0
  -10.0453   -2.0069   -4.3181 C   0  0  0  0  0  0  0  0  0  0  0  0
   -9.8480   -3.6882   -2.9621 O   0  0  0  0  0  0  0  0  0  0  0  0
   -9.2345   -4.7027   -2.7805 C   0  0  0  0  0  0  0  0  0  0  0  0
   -9.0977   -5.0491   -1.5473 O   0  0  0  0  0  0  0  0  0  0  0  0
   -9.1389   -5.5818   -3.7210 O   0  0  0  0  0  0  0  0  0  0  0  0
  -10.0991   -5.9115   -4.6052 C   0  0  0  0  0  0  0  0  0  0  0  0
   -9.6117   -5.4842   -6.0105 C   0  0  0  0  0  0  0  0  0  0  0  0
  1  2  2  0
  2  3  1  0
  2 16  1  0
  3  4  1  0
  3  6  2  0
  4  5  1  0
  6  7  1  0
  7 15  1  0
  7  8  1  0
 11 12  1  0
 12 28  1  0
 12 27  1  0
 12 26  1  0
 15 16  1  0
 15 25  2  0
 16 17  1  0
 17 18  1  0
 18 19  1  0
 18 29  1  0
 18 30  1  0
 30 31  1  0
 31 32  2  0
 31 33  1  0
 33 34  1  0
 34 35  1  0
  8  9  2  0
  9 10  1  0
 10 11  2  0
 11 13  1  0
 13 14  2  0
 14  8  1  0
 19 20  2  0
 20 21  1  0
 21 22  2  0
 22 23  1  0
 23 24  2  0
 24 19  1  0
M  END

$$$$
No_354-gen_results_new/Mpro_new_generate_500/2024-01-19-21-58-56/
     RDKit          3D

 35 38  0  0  0  0  0  0  0  0999 V2000
   -9.1300   -2.9100    0.4520 O   0  0  0  0  0  0  0  0  0  0  0  0
  -10.2490   -2.6420    0.1800 C   0  0  0  0  0  0  0  0  0  0  0  0
  -11.3800   -3.0650    1.0860 C   0  0  0  0  0  0  0  0  0  0  0  0
  -11.2000   -3.8390    2.3880 C   0  0  0  0  0  0  0  0  0  0  0  0
  -10.9900   -5.0690    2.3420 N   0  0  0  0  0  0  0  0  0  0  0  0
  -12.7310   -2.7290    0.7330 N   0  0  0  0  0  0  0  0  0  0  0  0
  -12.9960   -1.9940   -0.4510 N   0  0  0  0  0  0  0  0  0  0  0  0
  -14.3580   -1.6940   -0.7530 C   0  0  0  0  0  0  0  0  0  0  0  0
  -15.0390   -0.7180   -0.0560 C   0  0  0  0  0  0  0  0  0  0  0  0
  -16.3510   -0.4690   -0.3980 C   0  0  0  0  0  0  0  0  0  0  0  0
  -16.9430   -1.2030   -1.4080 C   0  0  0  0  0  0  0  0  0  0  0  0
  -18.3840   -0.9560   -1.8060 C   0  0  0  0  0  0  0  0  0  0  0  0
  -16.2510   -2.1690   -2.1000 C   0  0  0  0  0  0  0  0  0  0  0  0
  -14.9490   -2.4160   -1.7590 C   0  0  0  0  0  0  0  0  0  0  0  0
  -11.9050   -1.5730   -1.3540 C   0  0  0  0  0  0  0  0  0  0  0  0
  -10.5280   -1.9050   -1.0240 N   0  0  0  0  0  0  0  0  0  0  0  0
   -9.4550   -1.4720   -1.9190 C   0  0  0  0  0  0  0  0  0  0  0  0
   -9.2820   -2.3940   -3.1270 C   0  0  0  0  0  0  0  0  0  0  0  0
   -7.8170   -2.5500   -3.5360 C   0  0  0  0  0  0  0  0  0  0  0  0
   -6.9720   -3.3210   -2.7550 C   0  0  0  0  0  0  0  0  0  0  0  0
   -5.6390   -3.4770   -3.1110 C   0  0  0  0  0  0  0  0  0  0  0  0
   -5.1940   -2.8390   -4.2640 C   0  0  0  0  0  0  0  0  0  0  0  0
   -6.0850   -2.0780   -5.0070 C   0  0  0  0  0  0  0  0  0  0  0  0
   -7.3470   -1.9600   -4.6270 N   0  0  0  0  0  0  0  0  0  0  0  0
  -12.1450   -0.9640   -2.3390 O   0  0  0  0  0  0  0  0  0  0  0  0
  -18.7610   -1.8760   -2.7390 F   0  0  0  0  0  0  0  0  0  0  0  0
  -18.4550    0.3250   -2.2750 F   0  0  0  0  0  0  0  0  0  0  0  0
  -19.1950   -1.1300   -0.7370 F   0  0  0  0  0  0  0  0  0  0  0  0
   -9.7920   -3.7475   -2.8656 C   0  0  0  0  0  0  0  0  0  0  0  0
  -10.0717   -1.8029   -4.3549 C   0  0  0  0  0  0  0  0  0  0  0  0
  -10.0419   -4.6597   -4.1091 C   0  0  0  0  0  0  0  0  0  0  0  0
  -10.3271   -4.0944   -5.2068 O   0  0  0  0  0  0  0  0  0  0  0  0
  -10.6195   -2.6984   -5.2717 C   0  0  0  0  0  0  0  0  0  0  0  0
  -11.0428   -2.2664   -6.4531 F   0  0  0  0  0  0  0  0  0  0  0  0
   -9.6239   -0.6450   -4.9017 O   0  0  0  0  0  0  0  0  0  0  0  0
  1  2  2  0
  2  3  1  0
  2 16  1  0
  3  4  1  0
  3  6  2  0
  4  5  1  0
  6  7  1  0
  7 15  1  0
  7  8  1  0
 11 12  1  0
 12 28  1  0
 12 27  1  0
 12 26  1  0
 15 16  1  0
 15 25  2  0
 16 17  1  0
 17 18  1  0
 18 19  1  0
 18 29  1  0
 18 30  1  0
 29 31  2  0
 31 32  1  0
 30 33  1  0
 32 33  1  0
 33 34  1  0
 30 35  2  0
  8  9  2  0
  9 10  1  0
 10 11  2  0
 11 13  1  0
 13 14  2  0
 14  8  1  0
 19 20  2  0
 20 21  1  0
 21 22  2  0
 22 23  1  0
 23 24  2  0
 24 19  1  0
M  END

$$$$
No_355-gen_results_new/Mpro_new_generate_500/2024-01-19-21-58-56/
     RDKit          3D

 32 34  0  0  0  0  0  0  0  0999 V2000
   -9.1300   -2.9100    0.4520 O   0  0  0  0  0  0  0  0  0  0  0  0
  -10.2490   -2.6420    0.1800 C   0  0  0  0  0  0  0  0  0  0  0  0
  -11.3800   -3.0650    1.0860 C   0  0  0  0  0  0  0  0  0  0  0  0
  -11.2000   -3.8390    2.3880 C   0  0  0  0  0  0  0  0  0  0  0  0
  -10.9900   -5.0690    2.3420 N   0  0  0  0  0  0  0  0  0  0  0  0
  -12.7310   -2.7290    0.7330 N   0  0  0  0  0  0  0  0  0  0  0  0
  -12.9960   -1.9940   -0.4510 N   0  0  0  0  0  0  0  0  0  0  0  0
  -14.3580   -1.6940   -0.7530 C   0  0  0  0  0  0  0  0  0  0  0  0
  -15.0390   -0.7180   -0.0560 C   0  0  0  0  0  0  0  0  0  0  0  0
  -16.3510   -0.4690   -0.3980 C   0  0  0  0  0  0  0  0  0  0  0  0
  -16.9430   -1.2030   -1.4080 C   0  0  0  0  0  0  0  0  0  0  0  0
  -18.3840   -0.9560   -1.8060 C   0  0  0  0  0  0  0  0  0  0  0  0
  -16.2510   -2.1690   -2.1000 C   0  0  0  0  0  0  0  0  0  0  0  0
  -14.9490   -2.4160   -1.7590 C   0  0  0  0  0  0  0  0  0  0  0  0
  -11.9050   -1.5730   -1.3540 C   0  0  0  0  0  0  0  0  0  0  0  0
  -10.5280   -1.9050   -1.0240 N   0  0  0  0  0  0  0  0  0  0  0  0
   -9.4550   -1.4720   -1.9190 C   0  0  0  0  0  0  0  0  0  0  0  0
   -9.2820   -2.3940   -3.1270 C   0  0  0  0  0  0  0  0  0  0  0  0
   -7.8170   -2.5500   -3.5360 C   0  0  0  0  0  0  0  0  0  0  0  0
   -6.9720   -3.3210   -2.7550 C   0  0  0  0  0  0  0  0  0  0  0  0
   -5.6390   -3.4770   -3.1110 C   0  0  0  0  0  0  0  0  0  0  0  0
   -5.1940   -2.8390   -4.2640 C   0  0  0  0  0  0  0  0  0  0  0  0
   -6.0850   -2.0780   -5.0070 C   0  0  0  0  0  0  0  0  0  0  0  0
   -7.3470   -1.9600   -4.6270 N   0  0  0  0  0  0  0  0  0  0  0  0
  -12.1450   -0.9640   -2.3390 O   0  0  0  0  0  0  0  0  0  0  0  0
  -18.7610   -1.8760   -2.7390 F   0  0  0  0  0  0  0  0  0  0  0  0
  -18.4550    0.3250   -2.2750 F   0  0  0  0  0  0  0  0  0  0  0  0
  -19.1950   -1.1300   -0.7370 F   0  0  0  0  0  0  0  0  0  0  0  0
   -9.7920   -3.7475   -2.8656 C   0  0  0  0  0  0  0  0  0  0  0  0
  -10.0717   -1.8029   -4.3549 C   0  0  0  0  0  0  0  0  0  0  0  0
  -10.1499   -4.7026   -4.4192 S   0  0  0  0  0  0  0  0  0  0  0  0
   -9.7604   -6.0050   -3.9836 O   0  0  0  0  0  0  0  0  0  0  0  0
  1  2  2  0
  2  3  1  0
  2 16  1  0
  3  4  1  0
  3  6  2  0
  4  5  1  0
  6  7  1  0
  7 15  1  0
  7  8  1  0
 11 12  1  0
 12 28  1  0
 12 27  1  0
 12 26  1  0
 15 16  1  0
 15 25  2  0
 16 17  1  0
 17 18  1  0
 18 19  1  0
 18 29  1  0
 18 30  1  0
 29 31  3  0
 31 32  2  0
  8  9  2  0
  9 10  1  0
 10 11  2  0
 11 13  1  0
 13 14  2  0
 14  8  1  0
 19 20  2  0
 20 21  1  0
 21 22  2  0
 22 23  1  0
 23 24  2  0
 24 19  1  0
M  END

$$$$
No_356-gen_results_new/Mpro_new_generate_500/2024-01-19-21-58-56/
     RDKit          3D

 34 36  0  0  0  0  0  0  0  0999 V2000
   -9.1300   -2.9100    0.4520 O   0  0  0  0  0  0  0  0  0  0  0  0
  -10.2490   -2.6420    0.1800 C   0  0  0  0  0  0  0  0  0  0  0  0
  -11.3800   -3.0650    1.0860 C   0  0  0  0  0  0  0  0  0  0  0  0
  -11.2000   -3.8390    2.3880 C   0  0  0  0  0  0  0  0  0  0  0  0
  -10.9900   -5.0690    2.3420 N   0  0  0  0  0  0  0  0  0  0  0  0
  -12.7310   -2.7290    0.7330 N   0  0  0  0  0  0  0  0  0  0  0  0
  -12.9960   -1.9940   -0.4510 N   0  0  0  0  0  0  0  0  0  0  0  0
  -14.3580   -1.6940   -0.7530 C   0  0  0  0  0  0  0  0  0  0  0  0
  -15.0390   -0.7180   -0.0560 C   0  0  0  0  0  0  0  0  0  0  0  0
  -16.3510   -0.4690   -0.3980 C   0  0  0  0  0  0  0  0  0  0  0  0
  -16.9430   -1.2030   -1.4080 C   0  0  0  0  0  0  0  0  0  0  0  0
  -18.3840   -0.9560   -1.8060 C   0  0  0  0  0  0  0  0  0  0  0  0
  -16.2510   -2.1690   -2.1000 C   0  0  0  0  0  0  0  0  0  0  0  0
  -14.9490   -2.4160   -1.7590 C   0  0  0  0  0  0  0  0  0  0  0  0
  -11.9050   -1.5730   -1.3540 C   0  0  0  0  0  0  0  0  0  0  0  0
  -10.5280   -1.9050   -1.0240 N   0  0  0  0  0  0  0  0  0  0  0  0
   -9.4550   -1.4720   -1.9190 C   0  0  0  0  0  0  0  0  0  0  0  0
   -9.2820   -2.3940   -3.1270 C   0  0  0  0  0  0  0  0  0  0  0  0
   -7.8170   -2.5500   -3.5360 C   0  0  0  0  0  0  0  0  0  0  0  0
   -6.9720   -3.3210   -2.7550 C   0  0  0  0  0  0  0  0  0  0  0  0
   -5.6390   -3.4770   -3.1110 C   0  0  0  0  0  0  0  0  0  0  0  0
   -5.1940   -2.8390   -4.2640 C   0  0  0  0  0  0  0  0  0  0  0  0
   -6.0850   -2.0780   -5.0070 C   0  0  0  0  0  0  0  0  0  0  0  0
   -7.3470   -1.9600   -4.6270 N   0  0  0  0  0  0  0  0  0  0  0  0
  -12.1450   -0.9640   -2.3390 O   0  0  0  0  0  0  0  0  0  0  0  0
  -18.7610   -1.8760   -2.7390 F   0  0  0  0  0  0  0  0  0  0  0  0
  -18.4550    0.3250   -2.2750 F   0  0  0  0  0  0  0  0  0  0  0  0
  -19.1950   -1.1300   -0.7370 F   0  0  0  0  0  0  0  0  0  0  0  0
   -9.9592   -1.9070   -4.1913 F   0  0  0  0  0  0  0  0  0  0  0  0
   -9.8231   -3.6819   -2.9032 F   0  0  0  0  0  0  0  0  0  0  0  0
  -16.7841   -3.0194   -3.1226 O   0  0  0  0  0  0  0  0  0  0  0  0
  -16.5478   -4.4512   -2.9919 C   0  0  0  0  0  0  0  0  0  0  0  0
  -17.0430   -5.1683   -2.3948 F   0  0  0  0  0  0  0  0  0  0  0  0
  -15.5746   -4.7706   -3.6823 F   0  0  0  0  0  0  0  0  0  0  0  0
  1  2  2  0
  2  3  1  0
  2 16  1  0
  3  4  1  0
  3  6  2  0
  4  5  1  0
  6  7  1  0
  7 15  1  0
  7  8  1  0
 11 12  1  0
 12 28  1  0
 12 27  1  0
 12 26  1  0
 15 16  1  0
 15 25  2  0
 16 17  1  0
 17 18  1  0
 18 19  1  0
 18 29  1  0
 18 30  1  0
 13 31  1  0
 31 32  1  0
 32 33  1  0
 32 34  1  0
  8  9  2  0
  9 10  1  0
 10 11  2  0
 11 13  1  0
 13 14  2  0
 14  8  1  0
 19 20  2  0
 20 21  1  0
 21 22  2  0
 22 23  1  0
 23 24  2  0
 24 19  1  0
M  END

$$$$
No_357-gen_results_new/Mpro_new_generate_500/2024-01-19-21-58-56/
     RDKit          3D

 35 38  0  0  0  0  0  0  0  0999 V2000
   -9.1300   -2.9100    0.4520 O   0  0  0  0  0  0  0  0  0  0  0  0
  -10.2490   -2.6420    0.1800 C   0  0  0  0  0  0  0  0  0  0  0  0
  -11.3800   -3.0650    1.0860 C   0  0  0  0  0  0  0  0  0  0  0  0
  -11.2000   -3.8390    2.3880 C   0  0  0  0  0  0  0  0  0  0  0  0
  -10.9900   -5.0690    2.3420 N   0  0  0  0  0  0  0  0  0  0  0  0
  -12.7310   -2.7290    0.7330 N   0  0  0  0  0  0  0  0  0  0  0  0
  -12.9960   -1.9940   -0.4510 N   0  0  0  0  0  0  0  0  0  0  0  0
  -14.3580   -1.6940   -0.7530 C   0  0  0  0  0  0  0  0  0  0  0  0
  -15.0390   -0.7180   -0.0560 C   0  0  0  0  0  0  0  0  0  0  0  0
  -16.3510   -0.4690   -0.3980 C   0  0  0  0  0  0  0  0  0  0  0  0
  -16.9430   -1.2030   -1.4080 C   0  0  0  0  0  0  0  0  0  0  0  0
  -18.3840   -0.9560   -1.8060 C   0  0  0  0  0  0  0  0  0  0  0  0
  -16.2510   -2.1690   -2.1000 C   0  0  0  0  0  0  0  0  0  0  0  0
  -14.9490   -2.4160   -1.7590 C   0  0  0  0  0  0  0  0  0  0  0  0
  -11.9050   -1.5730   -1.3540 C   0  0  0  0  0  0  0  0  0  0  0  0
  -10.5280   -1.9050   -1.0240 N   0  0  0  0  0  0  0  0  0  0  0  0
   -9.4550   -1.4720   -1.9190 C   0  0  0  0  0  0  0  0  0  0  0  0
   -9.2820   -2.3940   -3.1270 C   0  0  0  0  0  0  0  0  0  0  0  0
   -7.8170   -2.5500   -3.5360 C   0  0  0  0  0  0  0  0  0  0  0  0
   -6.9720   -3.3210   -2.7550 C   0  0  0  0  0  0  0  0  0  0  0  0
   -5.6390   -3.4770   -3.1110 C   0  0  0  0  0  0  0  0  0  0  0  0
   -5.1940   -2.8390   -4.2640 C   0  0  0  0  0  0  0  0  0  0  0  0
   -6.0850   -2.0780   -5.0070 C   0  0  0  0  0  0  0  0  0  0  0  0
   -7.3470   -1.9600   -4.6270 N   0  0  0  0  0  0  0  0  0  0  0  0
  -12.1450   -0.9640   -2.3390 O   0  0  0  0  0  0  0  0  0  0  0  0
  -18.7610   -1.8760   -2.7390 F   0  0  0  0  0  0  0  0  0  0  0  0
  -18.4550    0.3250   -2.2750 F   0  0  0  0  0  0  0  0  0  0  0  0
  -19.1950   -1.1300   -0.7370 F   0  0  0  0  0  0  0  0  0  0  0  0
   -9.7920   -3.7475   -2.8656 C   0  0  0  0  0  0  0  0  0  0  0  0
  -10.0717   -1.8029   -4.3549 C   0  0  0  0  0  0  0  0  0  0  0  0
  -10.0419   -4.6597   -4.1091 C   0  0  0  0  0  0  0  0  0  0  0  0
  -10.3271   -4.0944   -5.2068 O   0  0  0  0  0  0  0  0  0  0  0  0
  -10.6195   -2.6984   -5.2717 C   0  0  0  0  0  0  0  0  0  0  0  0
  -11.0463   -2.1489   -6.6142 C   0  0  0  0  0  0  0  0  0  0  0  0
   -9.7327   -0.6427   -4.7505 O   0  0  0  0  0  0  0  0  0  0  0  0
  1  2  2  0
  2  3  1  0
  2 16  1  0
  3  4  1  0
  3  6  2  0
  4  5  1  0
  6  7  1  0
  7 15  1  0
  7  8  1  0
 11 12  1  0
 12 28  1  0
 12 27  1  0
 12 26  1  0
 15 16  1  0
 15 25  2  0
 16 17  1  0
 17 18  1  0
 18 19  1  0
 18 29  1  0
 18 30  1  0
 29 31  2  0
 31 32  1  0
 30 33  1  0
 32 33  1  0
 33 34  1  0
 30 35  2  0
  8  9  2  0
  9 10  1  0
 10 11  2  0
 11 13  1  0
 13 14  2  0
 14  8  1  0
 19 20  2  0
 20 21  1  0
 21 22  2  0
 22 23  1  0
 23 24  2  0
 24 19  1  0
M  END

$$$$
No_358-gen_results_new/Mpro_new_generate_500/2024-01-19-21-58-56/
     RDKit          3D

 34 36  0  0  0  0  0  0  0  0999 V2000
   -9.1300   -2.9100    0.4520 O   0  0  0  0  0  0  0  0  0  0  0  0
  -10.2490   -2.6420    0.1800 C   0  0  0  0  0  0  0  0  0  0  0  0
  -11.3800   -3.0650    1.0860 C   0  0  0  0  0  0  0  0  0  0  0  0
  -11.2000   -3.8390    2.3880 C   0  0  0  0  0  0  0  0  0  0  0  0
  -10.9900   -5.0690    2.3420 N   0  0  0  0  0  0  0  0  0  0  0  0
  -12.7310   -2.7290    0.7330 N   0  0  0  0  0  0  0  0  0  0  0  0
  -12.9960   -1.9940   -0.4510 N   0  0  0  0  0  0  0  0  0  0  0  0
  -14.3580   -1.6940   -0.7530 C   0  0  0  0  0  0  0  0  0  0  0  0
  -15.0390   -0.7180   -0.0560 C   0  0  0  0  0  0  0  0  0  0  0  0
  -16.3510   -0.4690   -0.3980 C   0  0  0  0  0  0  0  0  0  0  0  0
  -16.9430   -1.2030   -1.4080 C   0  0  0  0  0  0  0  0  0  0  0  0
  -18.3840   -0.9560   -1.8060 C   0  0  0  0  0  0  0  0  0  0  0  0
  -16.2510   -2.1690   -2.1000 C   0  0  0  0  0  0  0  0  0  0  0  0
  -14.9490   -2.4160   -1.7590 C   0  0  0  0  0  0  0  0  0  0  0  0
  -11.9050   -1.5730   -1.3540 C   0  0  0  0  0  0  0  0  0  0  0  0
  -10.5280   -1.9050   -1.0240 N   0  0  0  0  0  0  0  0  0  0  0  0
   -9.4550   -1.4720   -1.9190 C   0  0  0  0  0  0  0  0  0  0  0  0
   -9.2820   -2.3940   -3.1270 C   0  0  0  0  0  0  0  0  0  0  0  0
   -7.8170   -2.5500   -3.5360 C   0  0  0  0  0  0  0  0  0  0  0  0
   -6.9720   -3.3210   -2.7550 C   0  0  0  0  0  0  0  0  0  0  0  0
   -5.6390   -3.4770   -3.1110 C   0  0  0  0  0  0  0  0  0  0  0  0
   -5.1940   -2.8390   -4.2640 C   0  0  0  0  0  0  0  0  0  0  0  0
   -6.0850   -2.0780   -5.0070 C   0  0  0  0  0  0  0  0  0  0  0  0
   -7.3470   -1.9600   -4.6270 N   0  0  0  0  0  0  0  0  0  0  0  0
  -12.1450   -0.9640   -2.3390 O   0  0  0  0  0  0  0  0  0  0  0  0
  -18.7610   -1.8760   -2.7390 F   0  0  0  0  0  0  0  0  0  0  0  0
  -18.4550    0.3250   -2.2750 F   0  0  0  0  0  0  0  0  0  0  0  0
  -19.1950   -1.1300   -0.7370 F   0  0  0  0  0  0  0  0  0  0  0  0
  -10.0453   -2.0069   -4.3181 C   0  0  0  0  0  0  0  0  0  0  0  0
   -9.8476   -3.8948   -2.8015 C   0  0  0  0  0  0  0  0  0  0  0  0
  -10.0302   -4.6229   -3.7804 O   0  0  0  0  0  0  0  0  0  0  0  0
   -9.5724   -4.4673   -1.7773 O   0  0  0  0  0  0  0  0  0  0  0  0
   -8.7458   -5.6697   -1.9343 C   0  0  0  0  0  0  0  0  0  0  0  0
   -9.5797   -6.3095   -1.7238 F   0  0  0  0  0  0  0  0  0  0  0  0
  1  2  2  0
  2  3  1  0
  2 16  1  0
  3  4  1  0
  3  6  2  0
  4  5  1  0
  6  7  1  0
  7 15  1  0
  7  8  1  0
 11 12  1  0
 12 28  1  0
 12 27  1  0
 12 26  1  0
 15 16  1  0
 15 25  2  0
 16 17  1  0
 17 18  1  0
 18 19  1  0
 18 29  1  0
 18 30  1  0
 30 31  2  0
 30 32  1  0
 32 33  1  0
 33 34  1  0
  8  9  2  0
  9 10  1  0
 10 11  2  0
 11 13  1  0
 13 14  2  0
 14  8  1  0
 19 20  2  0
 20 21  1  0
 21 22  2  0
 22 23  1  0
 23 24  2  0
 24 19  1  0
M  END

$$$$
No_359-gen_results_new/Mpro_new_generate_500/2024-01-19-21-58-56/
     RDKit          3D

 32 34  0  0  0  0  0  0  0  0999 V2000
   -9.1300   -2.9100    0.4520 O   0  0  0  0  0  0  0  0  0  0  0  0
  -10.2490   -2.6420    0.1800 C   0  0  0  0  0  0  0  0  0  0  0  0
  -11.3800   -3.0650    1.0860 C   0  0  0  0  0  0  0  0  0  0  0  0
  -11.2000   -3.8390    2.3880 C   0  0  0  0  0  0  0  0  0  0  0  0
  -10.9900   -5.0690    2.3420 N   0  0  0  0  0  0  0  0  0  0  0  0
  -12.7310   -2.7290    0.7330 N   0  0  0  0  0  0  0  0  0  0  0  0
  -12.9960   -1.9940   -0.4510 N   0  0  0  0  0  0  0  0  0  0  0  0
  -14.3580   -1.6940   -0.7530 C   0  0  0  0  0  0  0  0  0  0  0  0
  -15.0390   -0.7180   -0.0560 C   0  0  0  0  0  0  0  0  0  0  0  0
  -16.3510   -0.4690   -0.3980 C   0  0  0  0  0  0  0  0  0  0  0  0
  -16.9430   -1.2030   -1.4080 C   0  0  0  0  0  0  0  0  0  0  0  0
  -18.3840   -0.9560   -1.8060 C   0  0  0  0  0  0  0  0  0  0  0  0
  -16.2510   -2.1690   -2.1000 C   0  0  0  0  0  0  0  0  0  0  0  0
  -14.9490   -2.4160   -1.7590 C   0  0  0  0  0  0  0  0  0  0  0  0
  -11.9050   -1.5730   -1.3540 C   0  0  0  0  0  0  0  0  0  0  0  0
  -10.5280   -1.9050   -1.0240 N   0  0  0  0  0  0  0  0  0  0  0  0
   -9.4550   -1.4720   -1.9190 C   0  0  0  0  0  0  0  0  0  0  0  0
   -9.2820   -2.3940   -3.1270 C   0  0  0  0  0  0  0  0  0  0  0  0
   -7.8170   -2.5500   -3.5360 C   0  0  0  0  0  0  0  0  0  0  0  0
   -6.9720   -3.3210   -2.7550 C   0  0  0  0  0  0  0  0  0  0  0  0
   -5.6390   -3.4770   -3.1110 C   0  0  0  0  0  0  0  0  0  0  0  0
   -5.1940   -2.8390   -4.2640 C   0  0  0  0  0  0  0  0  0  0  0  0
   -6.0850   -2.0780   -5.0070 C   0  0  0  0  0  0  0  0  0  0  0  0
   -7.3470   -1.9600   -4.6270 N   0  0  0  0  0  0  0  0  0  0  0  0
  -12.1450   -0.9640   -2.3390 O   0  0  0  0  0  0  0  0  0  0  0  0
  -18.7610   -1.8760   -2.7390 F   0  0  0  0  0  0  0  0  0  0  0  0
  -18.4550    0.3250   -2.2750 F   0  0  0  0  0  0  0  0  0  0  0  0
  -19.1950   -1.1300   -0.7370 F   0  0  0  0  0  0  0  0  0  0  0  0
   -9.9397   -3.9796   -2.9011 S   0  0  0  0  0  0  0  0  0  0  0  0
   -9.9423   -4.6555   -4.5783 C   0  0  0  0  0  0  0  0  0  0  0  0
  -11.6665   -3.8935   -2.5888 C   0  0  0  0  0  0  0  0  0  0  0  0
   -9.2596   -5.1253   -1.9102 C   0  0  0  0  0  0  0  0  0  0  0  0
  1  2  2  0
  2  3  1  0
  2 16  1  0
  3  4  1  0
  3  6  2  0
  4  5  1  0
  6  7  1  0
  7 15  1  0
  7  8  1  0
 11 12  1  0
 12 28  1  0
 12 27  1  0
 12 26  1  0
 15 16  1  0
 15 25  2  0
 16 17  1  0
 17 18  1  0
 18 19  1  0
 18 29  1  0
 29 30  1  0
 29 31  1  0
 29 32  1  0
  8  9  2  0
  9 10  1  0
 10 11  2  0
 11 13  1  0
 13 14  2  0
 14  8  1  0
 19 20  2  0
 20 21  1  0
 21 22  2  0
 22 23  1  0
 23 24  2  0
 24 19  1  0
M  END

$$$$
No_360-gen_results_new/Mpro_new_generate_500/2024-01-19-21-58-56/
     RDKit          3D

 35 38  0  0  0  0  0  0  0  0999 V2000
   -9.1300   -2.9100    0.4520 O   0  0  0  0  0  0  0  0  0  0  0  0
  -10.2490   -2.6420    0.1800 C   0  0  0  0  0  0  0  0  0  0  0  0
  -11.3800   -3.0650    1.0860 C   0  0  0  0  0  0  0  0  0  0  0  0
  -11.2000   -3.8390    2.3880 C   0  0  0  0  0  0  0  0  0  0  0  0
  -10.9900   -5.0690    2.3420 N   0  0  0  0  0  0  0  0  0  0  0  0
  -12.7310   -2.7290    0.7330 N   0  0  0  0  0  0  0  0  0  0  0  0
  -12.9960   -1.9940   -0.4510 N   0  0  0  0  0  0  0  0  0  0  0  0
  -14.3580   -1.6940   -0.7530 C   0  0  0  0  0  0  0  0  0  0  0  0
  -15.0390   -0.7180   -0.0560 C   0  0  0  0  0  0  0  0  0  0  0  0
  -16.3510   -0.4690   -0.3980 C   0  0  0  0  0  0  0  0  0  0  0  0
  -16.9430   -1.2030   -1.4080 C   0  0  0  0  0  0  0  0  0  0  0  0
  -18.3840   -0.9560   -1.8060 C   0  0  0  0  0  0  0  0  0  0  0  0
  -16.2510   -2.1690   -2.1000 C   0  0  0  0  0  0  0  0  0  0  0  0
  -14.9490   -2.4160   -1.7590 C   0  0  0  0  0  0  0  0  0  0  0  0
  -11.9050   -1.5730   -1.3540 C   0  0  0  0  0  0  0  0  0  0  0  0
  -10.5280   -1.9050   -1.0240 N   0  0  0  0  0  0  0  0  0  0  0  0
   -9.4550   -1.4720   -1.9190 C   0  0  0  0  0  0  0  0  0  0  0  0
   -9.2820   -2.3940   -3.1270 C   0  0  0  0  0  0  0  0  0  0  0  0
   -7.8170   -2.5500   -3.5360 C   0  0  0  0  0  0  0  0  0  0  0  0
   -6.9720   -3.3210   -2.7550 C   0  0  0  0  0  0  0  0  0  0  0  0
   -5.6390   -3.4770   -3.1110 C   0  0  0  0  0  0  0  0  0  0  0  0
   -5.1940   -2.8390   -4.2640 C   0  0  0  0  0  0  0  0  0  0  0  0
   -6.0850   -2.0780   -5.0070 C   0  0  0  0  0  0  0  0  0  0  0  0
   -7.3470   -1.9600   -4.6270 N   0  0  0  0  0  0  0  0  0  0  0  0
  -12.1450   -0.9640   -2.3390 O   0  0  0  0  0  0  0  0  0  0  0  0
  -18.7610   -1.8760   -2.7390 F   0  0  0  0  0  0  0  0  0  0  0  0
  -18.4550    0.3250   -2.2750 F   0  0  0  0  0  0  0  0  0  0  0  0
  -19.1950   -1.1300   -0.7370 F   0  0  0  0  0  0  0  0  0  0  0  0
   -9.7920   -3.7475   -2.8656 C   0  0  0  0  0  0  0  0  0  0  0  0
  -10.0717   -1.8029   -4.3549 C   0  0  0  0  0  0  0  0  0  0  0  0
  -10.0419   -4.6597   -4.1091 C   0  0  0  0  0  0  0  0  0  0  0  0
  -10.4950   -3.9035   -5.3363 C   0  0  0  0  0  0  0  0  0  0  0  0
  -11.1206   -4.8145   -6.4238 C   0  0  0  0  0  0  0  0  0  0  0  0
  -10.6371   -2.5879   -5.3195 C   0  0  0  0  0  0  0  0  0  0  0  0
  -12.1815   -4.6520   -6.8103 F   0  0  0  0  0  0  0  0  0  0  0  0
  1  2  2  0
  2  3  1  0
  2 16  1  0
  3  4  1  0
  3  6  2  0
  4  5  1  0
  6  7  1  0
  7 15  1  0
  7  8  1  0
 11 12  1  0
 12 28  1  0
 12 27  1  0
 12 26  1  0
 15 16  1  0
 15 25  2  0
 16 17  1  0
 17 18  1  0
 18 19  1  0
 18 29  1  0
 18 30  1  0
 31 32  1  0
 32 33  1  0
 30 34  1  0
 32 34  1  0
 33 35  1  0
 29 31  1  0
  8  9  2  0
  9 10  1  0
 10 11  2  0
 11 13  1  0
 13 14  2  0
 14  8  1  0
 19 20  2  0
 20 21  1  0
 21 22  2  0
 22 23  1  0
 23 24  2  0
 24 19  1  0
M  END

$$$$
No_361-gen_results_new/Mpro_new_generate_500/2024-01-19-21-58-56/
     RDKit          3D

 35 37  0  0  0  0  0  0  0  0999 V2000
   -9.1300   -2.9100    0.4520 O   0  0  0  0  0  0  0  0  0  0  0  0
  -10.2490   -2.6420    0.1800 C   0  0  0  0  0  0  0  0  0  0  0  0
  -11.3800   -3.0650    1.0860 C   0  0  0  0  0  0  0  0  0  0  0  0
  -11.2000   -3.8390    2.3880 C   0  0  0  0  0  0  0  0  0  0  0  0
  -10.9900   -5.0690    2.3420 N   0  0  0  0  0  0  0  0  0  0  0  0
  -12.7310   -2.7290    0.7330 N   0  0  0  0  0  0  0  0  0  0  0  0
  -12.9960   -1.9940   -0.4510 N   0  0  0  0  0  0  0  0  0  0  0  0
  -14.3580   -1.6940   -0.7530 C   0  0  0  0  0  0  0  0  0  0  0  0
  -15.0390   -0.7180   -0.0560 C   0  0  0  0  0  0  0  0  0  0  0  0
  -16.3510   -0.4690   -0.3980 C   0  0  0  0  0  0  0  0  0  0  0  0
  -16.9430   -1.2030   -1.4080 C   0  0  0  0  0  0  0  0  0  0  0  0
  -18.3840   -0.9560   -1.8060 C   0  0  0  0  0  0  0  0  0  0  0  0
  -16.2510   -2.1690   -2.1000 C   0  0  0  0  0  0  0  0  0  0  0  0
  -14.9490   -2.4160   -1.7590 C   0  0  0  0  0  0  0  0  0  0  0  0
  -11.9050   -1.5730   -1.3540 C   0  0  0  0  0  0  0  0  0  0  0  0
  -10.5280   -1.9050   -1.0240 N   0  0  0  0  0  0  0  0  0  0  0  0
   -9.4550   -1.4720   -1.9190 C   0  0  0  0  0  0  0  0  0  0  0  0
   -9.2820   -2.3940   -3.1270 C   0  0  0  0  0  0  0  0  0  0  0  0
   -7.8170   -2.5500   -3.5360 C   0  0  0  0  0  0  0  0  0  0  0  0
   -6.9720   -3.3210   -2.7550 C   0  0  0  0  0  0  0  0  0  0  0  0
   -5.6390   -3.4770   -3.1110 C   0  0  0  0  0  0  0  0  0  0  0  0
   -5.1940   -2.8390   -4.2640 C   0  0  0  0  0  0  0  0  0  0  0  0
   -6.0850   -2.0780   -5.0070 C   0  0  0  0  0  0  0  0  0  0  0  0
   -7.3470   -1.9600   -4.6270 N   0  0  0  0  0  0  0  0  0  0  0  0
  -12.1450   -0.9640   -2.3390 O   0  0  0  0  0  0  0  0  0  0  0  0
  -18.7610   -1.8760   -2.7390 F   0  0  0  0  0  0  0  0  0  0  0  0
  -18.4550    0.3250   -2.2750 F   0  0  0  0  0  0  0  0  0  0  0  0
  -19.1950   -1.1300   -0.7370 F   0  0  0  0  0  0  0  0  0  0  0  0
   -9.7920   -3.7475   -2.8656 C   0  0  0  0  0  0  0  0  0  0  0  0
  -10.0717   -1.8029   -4.3549 C   0  0  0  0  0  0  0  0  0  0  0  0
   -9.2295   -4.7877   -2.1591 C   0  0  0  0  0  0  0  0  0  0  0  0
  -10.6858   -4.3573   -3.7903 C   0  0  0  0  0  0  0  0  0  0  0  0
  -11.8748   -4.0234   -3.2094 F   0  0  0  0  0  0  0  0  0  0  0  0
  -10.7120   -5.7779   -3.7564 F   0  0  0  0  0  0  0  0  0  0  0  0
  -10.6817   -4.1080   -5.1135 F   0  0  0  0  0  0  0  0  0  0  0  0
  1  2  2  0
  2  3  1  0
  2 16  1  0
  3  4  1  0
  3  6  2  0
  4  5  1  0
  6  7  1  0
  7 15  1  0
  7  8  1  0
 11 12  1  0
 12 28  1  0
 12 27  1  0
 12 26  1  0
 15 16  1  0
 15 25  2  0
 16 17  1  0
 17 18  1  0
 18 19  1  0
 18 29  1  0
 18 30  1  0
 29 31  2  0
 29 32  1  0
 32 33  1  0
 32 34  1  0
 32 35  1  0
  8  9  2  0
  9 10  1  0
 10 11  2  0
 11 13  1  0
 13 14  2  0
 14  8  1  0
 19 20  2  0
 20 21  1  0
 21 22  2  0
 22 23  1  0
 23 24  2  0
 24 19  1  0
M  END

$$$$
No_362-gen_results_new/Mpro_new_generate_500/2024-01-19-21-58-56/
     RDKit          3D

 32 35  0  0  0  0  0  0  0  0999 V2000
   -9.1300   -2.9100    0.4520 O   0  0  0  0  0  0  0  0  0  0  0  0
  -10.2490   -2.6420    0.1800 C   0  0  0  0  0  0  0  0  0  0  0  0
  -11.3800   -3.0650    1.0860 C   0  0  0  0  0  0  0  0  0  0  0  0
  -11.2000   -3.8390    2.3880 C   0  0  0  0  0  0  0  0  0  0  0  0
  -10.9900   -5.0690    2.3420 N   0  0  0  0  0  0  0  0  0  0  0  0
  -12.7310   -2.7290    0.7330 N   0  0  0  0  0  0  0  0  0  0  0  0
  -12.9960   -1.9940   -0.4510 N   0  0  0  0  0  0  0  0  0  0  0  0
  -14.3580   -1.6940   -0.7530 C   0  0  0  0  0  0  0  0  0  0  0  0
  -15.0390   -0.7180   -0.0560 C   0  0  0  0  0  0  0  0  0  0  0  0
  -16.3510   -0.4690   -0.3980 C   0  0  0  0  0  0  0  0  0  0  0  0
  -16.9430   -1.2030   -1.4080 C   0  0  0  0  0  0  0  0  0  0  0  0
  -18.3840   -0.9560   -1.8060 C   0  0  0  0  0  0  0  0  0  0  0  0
  -16.2510   -2.1690   -2.1000 C   0  0  0  0  0  0  0  0  0  0  0  0
  -14.9490   -2.4160   -1.7590 C   0  0  0  0  0  0  0  0  0  0  0  0
  -11.9050   -1.5730   -1.3540 C   0  0  0  0  0  0  0  0  0  0  0  0
  -10.5280   -1.9050   -1.0240 N   0  0  0  0  0  0  0  0  0  0  0  0
   -9.4550   -1.4720   -1.9190 C   0  0  0  0  0  0  0  0  0  0  0  0
   -9.2820   -2.3940   -3.1270 C   0  0  0  0  0  0  0  0  0  0  0  0
   -7.8170   -2.5500   -3.5360 C   0  0  0  0  0  0  0  0  0  0  0  0
   -6.9720   -3.3210   -2.7550 C   0  0  0  0  0  0  0  0  0  0  0  0
   -5.6390   -3.4770   -3.1110 C   0  0  0  0  0  0  0  0  0  0  0  0
   -5.1940   -2.8390   -4.2640 C   0  0  0  0  0  0  0  0  0  0  0  0
   -6.0850   -2.0780   -5.0070 C   0  0  0  0  0  0  0  0  0  0  0  0
   -7.3470   -1.9600   -4.6270 N   0  0  0  0  0  0  0  0  0  0  0  0
  -12.1450   -0.9640   -2.3390 O   0  0  0  0  0  0  0  0  0  0  0  0
  -18.7610   -1.8760   -2.7390 F   0  0  0  0  0  0  0  0  0  0  0  0
  -18.4550    0.3250   -2.2750 F   0  0  0  0  0  0  0  0  0  0  0  0
  -19.1950   -1.1300   -0.7370 F   0  0  0  0  0  0  0  0  0  0  0  0
  -10.0453   -2.0069   -4.3181 C   0  0  0  0  0  0  0  0  0  0  0  0
   -9.8903   -3.8143   -2.9484 C   0  0  0  0  0  0  0  0  0  0  0  0
  -10.8021   -4.2389   -3.8324 C   0  0  0  0  0  0  0  0  0  0  0  0
  -11.0335   -2.9113   -4.5758 C   0  0  0  0  0  0  0  0  0  0  0  0
  1  2  2  0
  2  3  1  0
  2 16  1  0
  3  4  1  0
  3  6  2  0
  4  5  1  0
  6  7  1  0
  7 15  1  0
  7  8  1  0
 11 12  1  0
 12 28  1  0
 12 27  1  0
 12 26  1  0
 15 16  1  0
 15 25  2  0
 16 17  1  0
 17 18  1  0
 18 19  1  0
 18 29  1  0
 18 30  1  0
 30 31  1  0
 29 32  2  0
 31 32  1  0
  8  9  2  0
  9 10  1  0
 10 11  2  0
 11 13  1  0
 13 14  2  0
 14  8  1  0
 19 20  2  0
 20 21  1  0
 21 22  2  0
 22 23  1  0
 23 24  2  0
 24 19  1  0
M  END

$$$$
No_363-gen_results_new/Mpro_new_generate_500/2024-01-19-21-58-56/
     RDKit          3D

 35 38  0  0  0  0  0  0  0  0999 V2000
   -9.1300   -2.9100    0.4520 O   0  0  0  0  0  0  0  0  0  0  0  0
  -10.2490   -2.6420    0.1800 C   0  0  0  0  0  0  0  0  0  0  0  0
  -11.3800   -3.0650    1.0860 C   0  0  0  0  0  0  0  0  0  0  0  0
  -11.2000   -3.8390    2.3880 C   0  0  0  0  0  0  0  0  0  0  0  0
  -10.9900   -5.0690    2.3420 N   0  0  0  0  0  0  0  0  0  0  0  0
  -12.7310   -2.7290    0.7330 N   0  0  0  0  0  0  0  0  0  0  0  0
  -12.9960   -1.9940   -0.4510 N   0  0  0  0  0  0  0  0  0  0  0  0
  -14.3580   -1.6940   -0.7530 C   0  0  0  0  0  0  0  0  0  0  0  0
  -15.0390   -0.7180   -0.0560 C   0  0  0  0  0  0  0  0  0  0  0  0
  -16.3510   -0.4690   -0.3980 C   0  0  0  0  0  0  0  0  0  0  0  0
  -16.9430   -1.2030   -1.4080 C   0  0  0  0  0  0  0  0  0  0  0  0
  -18.3840   -0.9560   -1.8060 C   0  0  0  0  0  0  0  0  0  0  0  0
  -16.2510   -2.1690   -2.1000 C   0  0  0  0  0  0  0  0  0  0  0  0
  -14.9490   -2.4160   -1.7590 C   0  0  0  0  0  0  0  0  0  0  0  0
  -11.9050   -1.5730   -1.3540 C   0  0  0  0  0  0  0  0  0  0  0  0
  -10.5280   -1.9050   -1.0240 N   0  0  0  0  0  0  0  0  0  0  0  0
   -9.4550   -1.4720   -1.9190 C   0  0  0  0  0  0  0  0  0  0  0  0
   -9.2820   -2.3940   -3.1270 C   0  0  0  0  0  0  0  0  0  0  0  0
   -7.8170   -2.5500   -3.5360 C   0  0  0  0  0  0  0  0  0  0  0  0
   -6.9720   -3.3210   -2.7550 C   0  0  0  0  0  0  0  0  0  0  0  0
   -5.6390   -3.4770   -3.1110 C   0  0  0  0  0  0  0  0  0  0  0  0
   -5.1940   -2.8390   -4.2640 C   0  0  0  0  0  0  0  0  0  0  0  0
   -6.0850   -2.0780   -5.0070 C   0  0  0  0  0  0  0  0  0  0  0  0
   -7.3470   -1.9600   -4.6270 N   0  0  0  0  0  0  0  0  0  0  0  0
  -12.1450   -0.9640   -2.3390 O   0  0  0  0  0  0  0  0  0  0  0  0
  -18.7610   -1.8760   -2.7390 F   0  0  0  0  0  0  0  0  0  0  0  0
  -18.4550    0.3250   -2.2750 F   0  0  0  0  0  0  0  0  0  0  0  0
  -19.1950   -1.1300   -0.7370 F   0  0  0  0  0  0  0  0  0  0  0  0
  -10.0453   -2.0069   -4.3181 C   0  0  0  0  0  0  0  0  0  0  0  0
   -9.8476   -3.8948   -2.8015 C   0  0  0  0  0  0  0  0  0  0  0  0
  -10.1714   -4.7331   -3.9309 C   0  0  0  0  0  0  0  0  0  0  0  0
  -10.7318   -3.9946   -5.1407 C   0  0  0  0  0  0  0  0  0  0  0  0
  -10.7428   -2.6946   -5.1867 C   0  0  0  0  0  0  0  0  0  0  0  0
  -11.4029   -4.8297   -5.9589 F   0  0  0  0  0  0  0  0  0  0  0  0
   -9.8500   -0.5025   -4.8670 C   0  0  0  0  0  0  0  0  0  0  0  0
  1  2  2  0
  2  3  1  0
  2 16  1  0
  3  4  1  0
  3  6  2  0
  4  5  1  0
  6  7  1  0
  7 15  1  0
  7  8  1  0
 11 12  1  0
 12 28  1  0
 12 27  1  0
 12 26  1  0
 15 16  1  0
 15 25  2  0
 16 17  1  0
 17 18  1  0
 18 19  1  0
 18 29  1  0
 18 30  1  0
 31 32  1  0
 29 33  1  0
 32 34  1  0
 29 35  1  0
 33 32  1  0
 31 30  1  0
  8  9  2  0
  9 10  1  0
 10 11  2  0
 11 13  1  0
 13 14  2  0
 14  8  1  0
 19 20  2  0
 20 21  1  0
 21 22  2  0
 22 23  1  0
 23 24  2  0
 24 19  1  0
M  END

$$$$
No_364-gen_results_new/Mpro_new_generate_500/2024-01-19-21-58-56/
     RDKit          3D

 35 38  0  0  0  0  0  0  0  0999 V2000
   -9.1300   -2.9100    0.4520 O   0  0  0  0  0  0  0  0  0  0  0  0
  -10.2490   -2.6420    0.1800 C   0  0  0  0  0  0  0  0  0  0  0  0
  -11.3800   -3.0650    1.0860 C   0  0  0  0  0  0  0  0  0  0  0  0
  -11.2000   -3.8390    2.3880 C   0  0  0  0  0  0  0  0  0  0  0  0
  -10.9900   -5.0690    2.3420 N   0  0  0  0  0  0  0  0  0  0  0  0
  -12.7310   -2.7290    0.7330 N   0  0  0  0  0  0  0  0  0  0  0  0
  -12.9960   -1.9940   -0.4510 N   0  0  0  0  0  0  0  0  0  0  0  0
  -14.3580   -1.6940   -0.7530 C   0  0  0  0  0  0  0  0  0  0  0  0
  -15.0390   -0.7180   -0.0560 C   0  0  0  0  0  0  0  0  0  0  0  0
  -16.3510   -0.4690   -0.3980 C   0  0  0  0  0  0  0  0  0  0  0  0
  -16.9430   -1.2030   -1.4080 C   0  0  0  0  0  0  0  0  0  0  0  0
  -18.3840   -0.9560   -1.8060 C   0  0  0  0  0  0  0  0  0  0  0  0
  -16.2510   -2.1690   -2.1000 C   0  0  0  0  0  0  0  0  0  0  0  0
  -14.9490   -2.4160   -1.7590 C   0  0  0  0  0  0  0  0  0  0  0  0
  -11.9050   -1.5730   -1.3540 C   0  0  0  0  0  0  0  0  0  0  0  0
  -10.5280   -1.9050   -1.0240 N   0  0  0  0  0  0  0  0  0  0  0  0
   -9.4550   -1.4720   -1.9190 C   0  0  0  0  0  0  0  0  0  0  0  0
   -9.2820   -2.3940   -3.1270 C   0  0  0  0  0  0  0  0  0  0  0  0
   -7.8170   -2.5500   -3.5360 C   0  0  0  0  0  0  0  0  0  0  0  0
   -6.9720   -3.3210   -2.7550 C   0  0  0  0  0  0  0  0  0  0  0  0
   -5.6390   -3.4770   -3.1110 C   0  0  0  0  0  0  0  0  0  0  0  0
   -5.1940   -2.8390   -4.2640 C   0  0  0  0  0  0  0  0  0  0  0  0
   -6.0850   -2.0780   -5.0070 C   0  0  0  0  0  0  0  0  0  0  0  0
   -7.3470   -1.9600   -4.6270 N   0  0  0  0  0  0  0  0  0  0  0  0
  -12.1450   -0.9640   -2.3390 O   0  0  0  0  0  0  0  0  0  0  0  0
  -18.7610   -1.8760   -2.7390 F   0  0  0  0  0  0  0  0  0  0  0  0
  -18.4550    0.3250   -2.2750 F   0  0  0  0  0  0  0  0  0  0  0  0
  -19.1950   -1.1300   -0.7370 F   0  0  0  0  0  0  0  0  0  0  0  0
  -10.0453   -2.0069   -4.3181 C   0  0  0  0  0  0  0  0  0  0  0  0
   -9.8476   -3.8948   -2.8015 C   0  0  0  0  0  0  0  0  0  0  0  0
  -10.9871   -4.2370   -3.4678 C   0  0  0  0  0  0  0  0  0  0  0  0
  -12.0108   -5.0042   -3.0532 O   0  0  0  0  0  0  0  0  0  0  0  0
  -11.0808   -3.3419   -4.5706 C   0  0  0  0  0  0  0  0  0  0  0  0
  -12.7161   -4.7825   -1.8268 C   0  0  0  0  0  0  0  0  0  0  0  0
  -13.9383   -5.5061   -1.9223 C   0  0  0  0  0  0  0  0  0  0  0  0
  1  2  2  0
  2  3  1  0
  2 16  1  0
  3  4  1  0
  3  6  2  0
  4  5  1  0
  6  7  1  0
  7 15  1  0
  7  8  1  0
 11 12  1  0
 12 28  1  0
 12 27  1  0
 12 26  1  0
 15 16  1  0
 15 25  2  0
 16 17  1  0
 17 18  1  0
 18 19  1  0
 18 29  1  0
 18 30  1  0
 30 31  1  0
 31 32  1  0
 29 33  1  0
 31 33  1  0
 32 34  1  0
 34 35  1  0
  8  9  2  0
  9 10  1  0
 10 11  2  0
 11 13  1  0
 13 14  2  0
 14  8  1  0
 19 20  2  0
 20 21  1  0
 21 22  2  0
 22 23  1  0
 23 24  2  0
 24 19  1  0
M  END

$$$$
No_365-gen_results_new/Mpro_new_generate_500/2024-01-19-21-58-56/
     RDKit          3D

 35 38  0  0  0  0  0  0  0  0999 V2000
   -9.1300   -2.9100    0.4520 O   0  0  0  0  0  0  0  0  0  0  0  0
  -10.2490   -2.6420    0.1800 C   0  0  0  0  0  0  0  0  0  0  0  0
  -11.3800   -3.0650    1.0860 C   0  0  0  0  0  0  0  0  0  0  0  0
  -11.2000   -3.8390    2.3880 C   0  0  0  0  0  0  0  0  0  0  0  0
  -10.9900   -5.0690    2.3420 N   0  0  0  0  0  0  0  0  0  0  0  0
  -12.7310   -2.7290    0.7330 N   0  0  0  0  0  0  0  0  0  0  0  0
  -12.9960   -1.9940   -0.4510 N   0  0  0  0  0  0  0  0  0  0  0  0
  -14.3580   -1.6940   -0.7530 C   0  0  0  0  0  0  0  0  0  0  0  0
  -15.0390   -0.7180   -0.0560 C   0  0  0  0  0  0  0  0  0  0  0  0
  -16.3510   -0.4690   -0.3980 C   0  0  0  0  0  0  0  0  0  0  0  0
  -16.9430   -1.2030   -1.4080 C   0  0  0  0  0  0  0  0  0  0  0  0
  -18.3840   -0.9560   -1.8060 C   0  0  0  0  0  0  0  0  0  0  0  0
  -16.2510   -2.1690   -2.1000 C   0  0  0  0  0  0  0  0  0  0  0  0
  -14.9490   -2.4160   -1.7590 C   0  0  0  0  0  0  0  0  0  0  0  0
  -11.9050   -1.5730   -1.3540 C   0  0  0  0  0  0  0  0  0  0  0  0
  -10.5280   -1.9050   -1.0240 N   0  0  0  0  0  0  0  0  0  0  0  0
   -9.4550   -1.4720   -1.9190 C   0  0  0  0  0  0  0  0  0  0  0  0
   -9.2820   -2.3940   -3.1270 C   0  0  0  0  0  0  0  0  0  0  0  0
   -7.8170   -2.5500   -3.5360 C   0  0  0  0  0  0  0  0  0  0  0  0
   -6.9720   -3.3210   -2.7550 C   0  0  0  0  0  0  0  0  0  0  0  0
   -5.6390   -3.4770   -3.1110 C   0  0  0  0  0  0  0  0  0  0  0  0
   -5.1940   -2.8390   -4.2640 C   0  0  0  0  0  0  0  0  0  0  0  0
   -6.0850   -2.0780   -5.0070 C   0  0  0  0  0  0  0  0  0  0  0  0
   -7.3470   -1.9600   -4.6270 N   0  0  0  0  0  0  0  0  0  0  0  0
  -12.1450   -0.9640   -2.3390 O   0  0  0  0  0  0  0  0  0  0  0  0
  -18.7610   -1.8760   -2.7390 F   0  0  0  0  0  0  0  0  0  0  0  0
  -18.4550    0.3250   -2.2750 F   0  0  0  0  0  0  0  0  0  0  0  0
  -19.1950   -1.1300   -0.7370 F   0  0  0  0  0  0  0  0  0  0  0  0
  -10.0453   -2.0069   -4.3181 C   0  0  0  0  0  0  0  0  0  0  0  0
   -9.8476   -3.8948   -2.8015 C   0  0  0  0  0  0  0  0  0  0  0  0
  -10.9871   -4.2370   -3.4678 C   0  0  0  0  0  0  0  0  0  0  0  0
  -11.1005   -3.0106   -4.3397 O   0  0  0  0  0  0  0  0  0  0  0  0
  -12.1604   -4.9561   -4.1289 C   0  0  0  0  0  0  0  0  0  0  0  0
  -12.0937   -5.8136   -5.1770 C   0  0  0  0  0  0  0  0  0  0  0  0
  -10.7186   -1.7758   -5.3251 C   0  0  0  0  0  0  0  0  0  0  0  0
  1  2  2  0
  2  3  1  0
  2 16  1  0
  3  4  1  0
  3  6  2  0
  4  5  1  0
  6  7  1  0
  7 15  1  0
  7  8  1  0
 11 12  1  0
 12 28  1  0
 12 27  1  0
 12 26  1  0
 15 16  1  0
 15 25  2  0
 16 17  1  0
 17 18  1  0
 18 19  1  0
 18 29  1  0
 18 30  1  0
 30 31  1  0
 29 32  1  0
 31 32  1  0
 31 33  1  0
 33 34  2  0
 29 35  1  0
  8  9  2  0
  9 10  1  0
 10 11  2  0
 11 13  1  0
 13 14  2  0
 14  8  1  0
 19 20  2  0
 20 21  1  0
 21 22  2  0
 22 23  1  0
 23 24  2  0
 24 19  1  0
M  END

$$$$
No_366-gen_results_new/Mpro_new_generate_500/2024-01-19-21-58-56/
     RDKit          3D

 35 38  0  0  0  0  0  0  0  0999 V2000
   -9.1300   -2.9100    0.4520 O   0  0  0  0  0  0  0  0  0  0  0  0
  -10.2490   -2.6420    0.1800 C   0  0  0  0  0  0  0  0  0  0  0  0
  -11.3800   -3.0650    1.0860 C   0  0  0  0  0  0  0  0  0  0  0  0
  -11.2000   -3.8390    2.3880 C   0  0  0  0  0  0  0  0  0  0  0  0
  -10.9900   -5.0690    2.3420 N   0  0  0  0  0  0  0  0  0  0  0  0
  -12.7310   -2.7290    0.7330 N   0  0  0  0  0  0  0  0  0  0  0  0
  -12.9960   -1.9940   -0.4510 N   0  0  0  0  0  0  0  0  0  0  0  0
  -14.3580   -1.6940   -0.7530 C   0  0  0  0  0  0  0  0  0  0  0  0
  -15.0390   -0.7180   -0.0560 C   0  0  0  0  0  0  0  0  0  0  0  0
  -16.3510   -0.4690   -0.3980 C   0  0  0  0  0  0  0  0  0  0  0  0
  -16.9430   -1.2030   -1.4080 C   0  0  0  0  0  0  0  0  0  0  0  0
  -18.3840   -0.9560   -1.8060 C   0  0  0  0  0  0  0  0  0  0  0  0
  -16.2510   -2.1690   -2.1000 C   0  0  0  0  0  0  0  0  0  0  0  0
  -14.9490   -2.4160   -1.7590 C   0  0  0  0  0  0  0  0  0  0  0  0
  -11.9050   -1.5730   -1.3540 C   0  0  0  0  0  0  0  0  0  0  0  0
  -10.5280   -1.9050   -1.0240 N   0  0  0  0  0  0  0  0  0  0  0  0
   -9.4550   -1.4720   -1.9190 C   0  0  0  0  0  0  0  0  0  0  0  0
   -9.2820   -2.3940   -3.1270 C   0  0  0  0  0  0  0  0  0  0  0  0
   -7.8170   -2.5500   -3.5360 C   0  0  0  0  0  0  0  0  0  0  0  0
   -6.9720   -3.3210   -2.7550 C   0  0  0  0  0  0  0  0  0  0  0  0
   -5.6390   -3.4770   -3.1110 C   0  0  0  0  0  0  0  0  0  0  0  0
   -5.1940   -2.8390   -4.2640 C   0  0  0  0  0  0  0  0  0  0  0  0
   -6.0850   -2.0780   -5.0070 C   0  0  0  0  0  0  0  0  0  0  0  0
   -7.3470   -1.9600   -4.6270 N   0  0  0  0  0  0  0  0  0  0  0  0
  -12.1450   -0.9640   -2.3390 O   0  0  0  0  0  0  0  0  0  0  0  0
  -18.7610   -1.8760   -2.7390 F   0  0  0  0  0  0  0  0  0  0  0  0
  -18.4550    0.3250   -2.2750 F   0  0  0  0  0  0  0  0  0  0  0  0
  -19.1950   -1.1300   -0.7370 F   0  0  0  0  0  0  0  0  0  0  0  0
  -10.0453   -2.0069   -4.3181 C   0  0  0  0  0  0  0  0  0  0  0  0
   -9.8903   -3.8143   -2.9484 C   0  0  0  0  0  0  0  0  0  0  0  0
  -10.2391   -4.6422   -4.0501 C   0  0  0  0  0  0  0  0  0  0  0  0
  -10.7472   -3.2601   -4.8115 O   0  0  0  0  0  0  0  0  0  0  0  0
  -10.1384   -0.9882   -4.9860 O   0  0  0  0  0  0  0  0  0  0  0  0
  -11.0676   -3.9561   -2.0843 C   0  0  0  0  0  0  0  0  0  0  0  0
  -10.6741   -5.0716   -1.1120 C   0  0  0  0  0  0  0  0  0  0  0  0
  1  2  2  0
  2  3  1  0
  2 16  1  0
  3  4  1  0
  3  6  2  0
  4  5  1  0
  6  7  1  0
  7 15  1  0
  7  8  1  0
 11 12  1  0
 12 28  1  0
 12 27  1  0
 12 26  1  0
 15 16  1  0
 15 25  2  0
 16 17  1  0
 17 18  1  0
 18 19  1  0
 18 29  1  0
 18 30  1  0
 30 31  2  0
 29 32  1  0
 31 32  1  0
 29 33  2  0
 30 34  1  0
 34 35  1  0
  8  9  2  0
  9 10  1  0
 10 11  2  0
 11 13  1  0
 13 14  2  0
 14  8  1  0
 19 20  2  0
 20 21  1  0
 21 22  2  0
 22 23  1  0
 23 24  2  0
 24 19  1  0
M  END

$$$$
No_367-gen_results_new/Mpro_new_generate_500/2024-01-19-21-58-56/
     RDKit          3D

 35 37  0  0  0  0  0  0  0  0999 V2000
   -9.1300   -2.9100    0.4520 O   0  0  0  0  0  0  0  0  0  0  0  0
  -10.2490   -2.6420    0.1800 C   0  0  0  0  0  0  0  0  0  0  0  0
  -11.3800   -3.0650    1.0860 C   0  0  0  0  0  0  0  0  0  0  0  0
  -11.2000   -3.8390    2.3880 C   0  0  0  0  0  0  0  0  0  0  0  0
  -10.9900   -5.0690    2.3420 N   0  0  0  0  0  0  0  0  0  0  0  0
  -12.7310   -2.7290    0.7330 N   0  0  0  0  0  0  0  0  0  0  0  0
  -12.9960   -1.9940   -0.4510 N   0  0  0  0  0  0  0  0  0  0  0  0
  -14.3580   -1.6940   -0.7530 C   0  0  0  0  0  0  0  0  0  0  0  0
  -15.0390   -0.7180   -0.0560 C   0  0  0  0  0  0  0  0  0  0  0  0
  -16.3510   -0.4690   -0.3980 C   0  0  0  0  0  0  0  0  0  0  0  0
  -16.9430   -1.2030   -1.4080 C   0  0  0  0  0  0  0  0  0  0  0  0
  -18.3840   -0.9560   -1.8060 C   0  0  0  0  0  0  0  0  0  0  0  0
  -16.2510   -2.1690   -2.1000 C   0  0  0  0  0  0  0  0  0  0  0  0
  -14.9490   -2.4160   -1.7590 C   0  0  0  0  0  0  0  0  0  0  0  0
  -11.9050   -1.5730   -1.3540 C   0  0  0  0  0  0  0  0  0  0  0  0
  -10.5280   -1.9050   -1.0240 N   0  0  0  0  0  0  0  0  0  0  0  0
   -9.4550   -1.4720   -1.9190 C   0  0  0  0  0  0  0  0  0  0  0  0
   -9.2820   -2.3940   -3.1270 C   0  0  0  0  0  0  0  0  0  0  0  0
   -7.8170   -2.5500   -3.5360 C   0  0  0  0  0  0  0  0  0  0  0  0
   -6.9720   -3.3210   -2.7550 C   0  0  0  0  0  0  0  0  0  0  0  0
   -5.6390   -3.4770   -3.1110 C   0  0  0  0  0  0  0  0  0  0  0  0
   -5.1940   -2.8390   -4.2640 C   0  0  0  0  0  0  0  0  0  0  0  0
   -6.0850   -2.0780   -5.0070 C   0  0  0  0  0  0  0  0  0  0  0  0
   -7.3470   -1.9600   -4.6270 N   0  0  0  0  0  0  0  0  0  0  0  0
  -12.1450   -0.9640   -2.3390 O   0  0  0  0  0  0  0  0  0  0  0  0
  -18.7610   -1.8760   -2.7390 F   0  0  0  0  0  0  0  0  0  0  0  0
  -18.4550    0.3250   -2.2750 F   0  0  0  0  0  0  0  0  0  0  0  0
  -19.1950   -1.1300   -0.7370 F   0  0  0  0  0  0  0  0  0  0  0  0
  -10.0899   -3.0088   -3.7244 O   0  0  0  0  0  0  0  0  0  0  0  0
  -16.7844   -3.0180   -3.1233 O   0  0  0  0  0  0  0  0  0  0  0  0
  -16.5408   -4.4495   -2.9958 C   0  0  0  0  0  0  0  0  0  0  0  0
  -15.4005   -4.7138   -4.0517 C   0  0  0  0  0  0  0  0  0  0  0  0
  -14.4544   -5.7591   -3.4728 C   0  0  0  0  0  0  0  0  0  0  0  0
  -13.5889   -6.2160   -4.2800 C   0  0  0  0  0  0  0  0  0  0  0  0
  -14.3110   -6.0285   -2.1531 N   0  0  0  0  0  0  0  0  0  0  0  0
  1  2  2  0
  2  3  1  0
  2 16  1  0
  3  4  1  0
  3  6  2  0
  4  5  1  0
  6  7  1  0
  7 15  1  0
  7  8  1  0
 11 12  1  0
 12 28  1  0
 12 27  1  0
 12 26  1  0
 15 16  1  0
 15 25  2  0
 16 17  1  0
 17 18  1  0
 18 19  1  0
 18 29  2  0
 13 30  1  0
 30 31  1  0
 31 32  1  0
 32 33  1  0
 33 34  2  0
 33 35  1  0
  8  9  2  0
  9 10  1  0
 10 11  2  0
 11 13  1  0
 13 14  2  0
 14  8  1  0
 19 20  2  0
 20 21  1  0
 21 22  2  0
 22 23  1  0
 23 24  2  0
 24 19  1  0
M  END

$$$$
No_368-gen_results_new/Mpro_new_generate_500/2024-01-19-21-58-56/
     RDKit          3D

 33 35  0  0  0  0  0  0  0  0999 V2000
   -9.1300   -2.9100    0.4520 O   0  0  0  0  0  0  0  0  0  0  0  0
  -10.2490   -2.6420    0.1800 C   0  0  0  0  0  0  0  0  0  0  0  0
  -11.3800   -3.0650    1.0860 C   0  0  0  0  0  0  0  0  0  0  0  0
  -11.2000   -3.8390    2.3880 C   0  0  0  0  0  0  0  0  0  0  0  0
  -10.9900   -5.0690    2.3420 N   0  0  0  0  0  0  0  0  0  0  0  0
  -12.7310   -2.7290    0.7330 N   0  0  0  0  0  0  0  0  0  0  0  0
  -12.9960   -1.9940   -0.4510 N   0  0  0  0  0  0  0  0  0  0  0  0
  -14.3580   -1.6940   -0.7530 C   0  0  0  0  0  0  0  0  0  0  0  0
  -15.0390   -0.7180   -0.0560 C   0  0  0  0  0  0  0  0  0  0  0  0
  -16.3510   -0.4690   -0.3980 C   0  0  0  0  0  0  0  0  0  0  0  0
  -16.9430   -1.2030   -1.4080 C   0  0  0  0  0  0  0  0  0  0  0  0
  -18.3840   -0.9560   -1.8060 C   0  0  0  0  0  0  0  0  0  0  0  0
  -16.2510   -2.1690   -2.1000 C   0  0  0  0  0  0  0  0  0  0  0  0
  -14.9490   -2.4160   -1.7590 C   0  0  0  0  0  0  0  0  0  0  0  0
  -11.9050   -1.5730   -1.3540 C   0  0  0  0  0  0  0  0  0  0  0  0
  -10.5280   -1.9050   -1.0240 N   0  0  0  0  0  0  0  0  0  0  0  0
   -9.4550   -1.4720   -1.9190 C   0  0  0  0  0  0  0  0  0  0  0  0
   -9.2820   -2.3940   -3.1270 C   0  0  0  0  0  0  0  0  0  0  0  0
   -7.8170   -2.5500   -3.5360 C   0  0  0  0  0  0  0  0  0  0  0  0
   -6.9720   -3.3210   -2.7550 C   0  0  0  0  0  0  0  0  0  0  0  0
   -5.6390   -3.4770   -3.1110 C   0  0  0  0  0  0  0  0  0  0  0  0
   -5.1940   -2.8390   -4.2640 C   0  0  0  0  0  0  0  0  0  0  0  0
   -6.0850   -2.0780   -5.0070 C   0  0  0  0  0  0  0  0  0  0  0  0
   -7.3470   -1.9600   -4.6270 N   0  0  0  0  0  0  0  0  0  0  0  0
  -12.1450   -0.9640   -2.3390 O   0  0  0  0  0  0  0  0  0  0  0  0
  -18.7610   -1.8760   -2.7390 F   0  0  0  0  0  0  0  0  0  0  0  0
  -18.4550    0.3250   -2.2750 F   0  0  0  0  0  0  0  0  0  0  0  0
  -19.1950   -1.1300   -0.7370 F   0  0  0  0  0  0  0  0  0  0  0  0
   -9.6560   -3.6380   -2.7665 F   0  0  0  0  0  0  0  0  0  0  0  0
  -10.1042   -1.8827   -4.3253 C   0  0  0  0  0  0  0  0  0  0  0  0
  -16.7754   -3.1567   -3.2087 C   0  0  0  0  0  0  0  0  0  0  0  0
  -16.6715   -4.4006   -2.9965 F   0  0  0  0  0  0  0  0  0  0  0  0
  -18.2841   -3.1231   -2.9994 F   0  0  0  0  0  0  0  0  0  0  0  0
  1  2  2  0
  2  3  1  0
  2 16  1  0
  3  4  1  0
  3  6  2  0
  4  5  1  0
  6  7  1  0
  7 15  1  0
  7  8  1  0
 11 12  1  0
 12 28  1  0
 12 27  1  0
 12 26  1  0
 15 16  1  0
 15 25  2  0
 16 17  1  0
 17 18  1  0
 18 19  1  0
 18 29  1  0
 18 30  1  0
 13 31  1  0
 31 32  1  0
 31 33  1  0
  8  9  2  0
  9 10  1  0
 10 11  2  0
 11 13  1  0
 13 14  2  0
 14  8  1  0
 19 20  2  0
 20 21  1  0
 21 22  2  0
 22 23  1  0
 23 24  2  0
 24 19  1  0
M  END

$$$$
No_369-gen_results_new/Mpro_new_generate_500/2024-01-19-21-58-56/
     RDKit          3D

 35 37  0  0  0  0  0  0  0  0999 V2000
   -9.1300   -2.9100    0.4520 O   0  0  0  0  0  0  0  0  0  0  0  0
  -10.2490   -2.6420    0.1800 C   0  0  0  0  0  0  0  0  0  0  0  0
  -11.3800   -3.0650    1.0860 C   0  0  0  0  0  0  0  0  0  0  0  0
  -11.2000   -3.8390    2.3880 C   0  0  0  0  0  0  0  0  0  0  0  0
  -10.9900   -5.0690    2.3420 N   0  0  0  0  0  0  0  0  0  0  0  0
  -12.7310   -2.7290    0.7330 N   0  0  0  0  0  0  0  0  0  0  0  0
  -12.9960   -1.9940   -0.4510 N   0  0  0  0  0  0  0  0  0  0  0  0
  -14.3580   -1.6940   -0.7530 C   0  0  0  0  0  0  0  0  0  0  0  0
  -15.0390   -0.7180   -0.0560 C   0  0  0  0  0  0  0  0  0  0  0  0
  -16.3510   -0.4690   -0.3980 C   0  0  0  0  0  0  0  0  0  0  0  0
  -16.9430   -1.2030   -1.4080 C   0  0  0  0  0  0  0  0  0  0  0  0
  -18.3840   -0.9560   -1.8060 C   0  0  0  0  0  0  0  0  0  0  0  0
  -16.2510   -2.1690   -2.1000 C   0  0  0  0  0  0  0  0  0  0  0  0
  -14.9490   -2.4160   -1.7590 C   0  0  0  0  0  0  0  0  0  0  0  0
  -11.9050   -1.5730   -1.3540 C   0  0  0  0  0  0  0  0  0  0  0  0
  -10.5280   -1.9050   -1.0240 N   0  0  0  0  0  0  0  0  0  0  0  0
   -9.4550   -1.4720   -1.9190 C   0  0  0  0  0  0  0  0  0  0  0  0
   -9.2820   -2.3940   -3.1270 C   0  0  0  0  0  0  0  0  0  0  0  0
   -7.8170   -2.5500   -3.5360 C   0  0  0  0  0  0  0  0  0  0  0  0
   -6.9720   -3.3210   -2.7550 C   0  0  0  0  0  0  0  0  0  0  0  0
   -5.6390   -3.4770   -3.1110 C   0  0  0  0  0  0  0  0  0  0  0  0
   -5.1940   -2.8390   -4.2640 C   0  0  0  0  0  0  0  0  0  0  0  0
   -6.0850   -2.0780   -5.0070 C   0  0  0  0  0  0  0  0  0  0  0  0
   -7.3470   -1.9600   -4.6270 N   0  0  0  0  0  0  0  0  0  0  0  0
  -12.1450   -0.9640   -2.3390 O   0  0  0  0  0  0  0  0  0  0  0  0
  -18.7610   -1.8760   -2.7390 F   0  0  0  0  0  0  0  0  0  0  0  0
  -18.4550    0.3250   -2.2750 F   0  0  0  0  0  0  0  0  0  0  0  0
  -19.1950   -1.1300   -0.7370 F   0  0  0  0  0  0  0  0  0  0  0  0
   -9.7920   -3.7475   -2.8656 C   0  0  0  0  0  0  0  0  0  0  0  0
  -10.0717   -1.8029   -4.3549 C   0  0  0  0  0  0  0  0  0  0  0  0
   -9.3646   -4.4618   -1.7954 F   0  0  0  0  0  0  0  0  0  0  0  0
   -9.8768   -4.7033   -4.0148 C   0  0  0  0  0  0  0  0  0  0  0  0
  -11.1865   -3.6047   -2.4474 F   0  0  0  0  0  0  0  0  0  0  0  0
  -11.0122   -4.9104   -4.8154 C   0  0  0  0  0  0  0  0  0  0  0  0
  -10.7425   -4.9903   -6.2504 C   0  0  0  0  0  0  0  0  0  0  0  0
  1  2  2  0
  2  3  1  0
  2 16  1  0
  3  4  1  0
  3  6  2  0
  4  5  1  0
  6  7  1  0
  7 15  1  0
  7  8  1  0
 11 12  1  0
 12 28  1  0
 12 27  1  0
 12 26  1  0
 15 16  1  0
 15 25  2  0
 16 17  1  0
 17 18  1  0
 18 19  1  0
 18 29  1  0
 18 30  1  0
 29 31  1  0
 29 32  1  0
 29 33  1  0
 32 34  1  0
 34 35  1  0
  8  9  2  0
  9 10  1  0
 10 11  2  0
 11 13  1  0
 13 14  2  0
 14  8  1  0
 19 20  2  0
 20 21  1  0
 21 22  2  0
 22 23  1  0
 23 24  2  0
 24 19  1  0
M  END

$$$$
No_370-gen_results_new/Mpro_new_generate_500/2024-01-19-21-58-56/
     RDKit          3D

 35 38  0  0  0  0  0  0  0  0999 V2000
   -9.1300   -2.9100    0.4520 O   0  0  0  0  0  0  0  0  0  0  0  0
  -10.2490   -2.6420    0.1800 C   0  0  0  0  0  0  0  0  0  0  0  0
  -11.3800   -3.0650    1.0860 C   0  0  0  0  0  0  0  0  0  0  0  0
  -11.2000   -3.8390    2.3880 C   0  0  0  0  0  0  0  0  0  0  0  0
  -10.9900   -5.0690    2.3420 N   0  0  0  0  0  0  0  0  0  0  0  0
  -12.7310   -2.7290    0.7330 N   0  0  0  0  0  0  0  0  0  0  0  0
  -12.9960   -1.9940   -0.4510 N   0  0  0  0  0  0  0  0  0  0  0  0
  -14.3580   -1.6940   -0.7530 C   0  0  0  0  0  0  0  0  0  0  0  0
  -15.0390   -0.7180   -0.0560 C   0  0  0  0  0  0  0  0  0  0  0  0
  -16.3510   -0.4690   -0.3980 C   0  0  0  0  0  0  0  0  0  0  0  0
  -16.9430   -1.2030   -1.4080 C   0  0  0  0  0  0  0  0  0  0  0  0
  -18.3840   -0.9560   -1.8060 C   0  0  0  0  0  0  0  0  0  0  0  0
  -16.2510   -2.1690   -2.1000 C   0  0  0  0  0  0  0  0  0  0  0  0
  -14.9490   -2.4160   -1.7590 C   0  0  0  0  0  0  0  0  0  0  0  0
  -11.9050   -1.5730   -1.3540 C   0  0  0  0  0  0  0  0  0  0  0  0
  -10.5280   -1.9050   -1.0240 N   0  0  0  0  0  0  0  0  0  0  0  0
   -9.4550   -1.4720   -1.9190 C   0  0  0  0  0  0  0  0  0  0  0  0
   -9.2820   -2.3940   -3.1270 C   0  0  0  0  0  0  0  0  0  0  0  0
   -7.8170   -2.5500   -3.5360 C   0  0  0  0  0  0  0  0  0  0  0  0
   -6.9720   -3.3210   -2.7550 C   0  0  0  0  0  0  0  0  0  0  0  0
   -5.6390   -3.4770   -3.1110 C   0  0  0  0  0  0  0  0  0  0  0  0
   -5.1940   -2.8390   -4.2640 C   0  0  0  0  0  0  0  0  0  0  0  0
   -6.0850   -2.0780   -5.0070 C   0  0  0  0  0  0  0  0  0  0  0  0
   -7.3470   -1.9600   -4.6270 N   0  0  0  0  0  0  0  0  0  0  0  0
  -12.1450   -0.9640   -2.3390 O   0  0  0  0  0  0  0  0  0  0  0  0
  -18.7610   -1.8760   -2.7390 F   0  0  0  0  0  0  0  0  0  0  0  0
  -18.4550    0.3250   -2.2750 F   0  0  0  0  0  0  0  0  0  0  0  0
  -19.1950   -1.1300   -0.7370 F   0  0  0  0  0  0  0  0  0  0  0  0
   -9.7920   -3.7475   -2.8656 C   0  0  0  0  0  0  0  0  0  0  0  0
  -10.1387   -2.0206   -4.2903 C   0  0  0  0  0  0  0  0  0  0  0  0
  -10.1257   -4.6809   -3.9732 C   0  0  0  0  0  0  0  0  0  0  0  0
  -10.6121   -3.5280   -4.9891 C   0  0  0  0  0  0  0  0  0  0  0  0
  -11.1360   -3.3790   -6.3190 C   0  0  0  0  0  0  0  0  0  0  0  0
  -10.2403   -3.9430   -7.0773 F   0  0  0  0  0  0  0  0  0  0  0  0
  -11.5040   -2.3615   -6.8446 F   0  0  0  0  0  0  0  0  0  0  0  0
  1  2  2  0
  2  3  1  0
  2 16  1  0
  3  4  1  0
  3  6  2  0
  4  5  1  0
  6  7  1  0
  7 15  1  0
  7  8  1  0
 11 12  1  0
 12 28  1  0
 12 27  1  0
 12 26  1  0
 15 16  1  0
 15 25  2  0
 16 17  1  0
 17 18  1  0
 18 19  1  0
 18 29  1  0
 18 30  1  0
 29 31  2  0
 30 32  1  0
 31 32  1  0
 32 33  1  0
 33 34  1  0
 33 35  1  0
  8  9  2  0
  9 10  1  0
 10 11  2  0
 11 13  1  0
 13 14  2  0
 14  8  1  0
 19 20  2  0
 20 21  1  0
 21 22  2  0
 22 23  1  0
 23 24  2  0
 24 19  1  0
M  END

$$$$
No_371-gen_results_new/Mpro_new_generate_500/2024-01-19-21-58-56/
     RDKit          3D

 32 34  0  0  0  0  0  0  0  0999 V2000
   -9.1300   -2.9100    0.4520 O   0  0  0  0  0  0  0  0  0  0  0  0
  -10.2490   -2.6420    0.1800 C   0  0  0  0  0  0  0  0  0  0  0  0
  -11.3800   -3.0650    1.0860 C   0  0  0  0  0  0  0  0  0  0  0  0
  -11.2000   -3.8390    2.3880 C   0  0  0  0  0  0  0  0  0  0  0  0
  -10.9900   -5.0690    2.3420 N   0  0  0  0  0  0  0  0  0  0  0  0
  -12.7310   -2.7290    0.7330 N   0  0  0  0  0  0  0  0  0  0  0  0
  -12.9960   -1.9940   -0.4510 N   0  0  0  0  0  0  0  0  0  0  0  0
  -14.3580   -1.6940   -0.7530 C   0  0  0  0  0  0  0  0  0  0  0  0
  -15.0390   -0.7180   -0.0560 C   0  0  0  0  0  0  0  0  0  0  0  0
  -16.3510   -0.4690   -0.3980 C   0  0  0  0  0  0  0  0  0  0  0  0
  -16.9430   -1.2030   -1.4080 C   0  0  0  0  0  0  0  0  0  0  0  0
  -18.3840   -0.9560   -1.8060 C   0  0  0  0  0  0  0  0  0  0  0  0
  -16.2510   -2.1690   -2.1000 C   0  0  0  0  0  0  0  0  0  0  0  0
  -14.9490   -2.4160   -1.7590 C   0  0  0  0  0  0  0  0  0  0  0  0
  -11.9050   -1.5730   -1.3540 C   0  0  0  0  0  0  0  0  0  0  0  0
  -10.5280   -1.9050   -1.0240 N   0  0  0  0  0  0  0  0  0  0  0  0
   -9.4550   -1.4720   -1.9190 C   0  0  0  0  0  0  0  0  0  0  0  0
   -9.2820   -2.3940   -3.1270 C   0  0  0  0  0  0  0  0  0  0  0  0
   -7.8170   -2.5500   -3.5360 C   0  0  0  0  0  0  0  0  0  0  0  0
   -6.9720   -3.3210   -2.7550 C   0  0  0  0  0  0  0  0  0  0  0  0
   -5.6390   -3.4770   -3.1110 C   0  0  0  0  0  0  0  0  0  0  0  0
   -5.1940   -2.8390   -4.2640 C   0  0  0  0  0  0  0  0  0  0  0  0
   -6.0850   -2.0780   -5.0070 C   0  0  0  0  0  0  0  0  0  0  0  0
   -7.3470   -1.9600   -4.6270 N   0  0  0  0  0  0  0  0  0  0  0  0
  -12.1450   -0.9640   -2.3390 O   0  0  0  0  0  0  0  0  0  0  0  0
  -18.7610   -1.8760   -2.7390 F   0  0  0  0  0  0  0  0  0  0  0  0
  -18.4550    0.3250   -2.2750 F   0  0  0  0  0  0  0  0  0  0  0  0
  -19.1950   -1.1300   -0.7370 F   0  0  0  0  0  0  0  0  0  0  0  0
  -10.1467   -3.0903   -3.8357 C   0  0  0  0  0  0  0  0  0  0  0  0
  -10.1748   -2.6832   -3.5186 O   0  0  0  0  0  0  0  0  0  0  0  0
  -10.3765   -2.3268   -4.6334 C   0  0  0  0  0  0  0  0  0  0  0  0
   -9.2891   -3.4382   -2.5496 F   0  0  0  0  0  0  0  0  0  0  0  0
  1  2  2  0
  2  3  1  0
  2 16  1  0
  3  4  1  0
  3  6  2  0
  4  5  1  0
  6  7  1  0
  7 15  1  0
  7  8  1  0
 11 12  1  0
 12 28  1  0
 12 27  1  0
 12 26  1  0
 15 16  1  0
 15 25  2  0
 16 17  1  0
 17 18  1  0
 18 19  1  0
 18 29  1  0
 29 30  1  0
 30 31  1  0
 29 32  1  0
  8  9  2  0
  9 10  1  0
 10 11  2  0
 11 13  1  0
 13 14  2  0
 14  8  1  0
 19 20  2  0
 20 21  1  0
 21 22  2  0
 22 23  1  0
 23 24  2  0
 24 19  1  0
M  END

$$$$
No_372-gen_results_new/Mpro_new_generate_500/2024-01-19-21-58-56/
     RDKit          3D

 35 37  0  0  0  0  0  0  0  0999 V2000
   -9.1300   -2.9100    0.4520 O   0  0  0  0  0  0  0  0  0  0  0  0
  -10.2490   -2.6420    0.1800 C   0  0  0  0  0  0  0  0  0  0  0  0
  -11.3800   -3.0650    1.0860 C   0  0  0  0  0  0  0  0  0  0  0  0
  -11.2000   -3.8390    2.3880 C   0  0  0  0  0  0  0  0  0  0  0  0
  -10.9900   -5.0690    2.3420 N   0  0  0  0  0  0  0  0  0  0  0  0
  -12.7310   -2.7290    0.7330 N   0  0  0  0  0  0  0  0  0  0  0  0
  -12.9960   -1.9940   -0.4510 N   0  0  0  0  0  0  0  0  0  0  0  0
  -14.3580   -1.6940   -0.7530 C   0  0  0  0  0  0  0  0  0  0  0  0
  -15.0390   -0.7180   -0.0560 C   0  0  0  0  0  0  0  0  0  0  0  0
  -16.3510   -0.4690   -0.3980 C   0  0  0  0  0  0  0  0  0  0  0  0
  -16.9430   -1.2030   -1.4080 C   0  0  0  0  0  0  0  0  0  0  0  0
  -18.3840   -0.9560   -1.8060 C   0  0  0  0  0  0  0  0  0  0  0  0
  -16.2510   -2.1690   -2.1000 C   0  0  0  0  0  0  0  0  0  0  0  0
  -14.9490   -2.4160   -1.7590 C   0  0  0  0  0  0  0  0  0  0  0  0
  -11.9050   -1.5730   -1.3540 C   0  0  0  0  0  0  0  0  0  0  0  0
  -10.5280   -1.9050   -1.0240 N   0  0  0  0  0  0  0  0  0  0  0  0
   -9.4550   -1.4720   -1.9190 C   0  0  0  0  0  0  0  0  0  0  0  0
   -9.2820   -2.3940   -3.1270 C   0  0  0  0  0  0  0  0  0  0  0  0
   -7.8170   -2.5500   -3.5360 C   0  0  0  0  0  0  0  0  0  0  0  0
   -6.9720   -3.3210   -2.7550 C   0  0  0  0  0  0  0  0  0  0  0  0
   -5.6390   -3.4770   -3.1110 C   0  0  0  0  0  0  0  0  0  0  0  0
   -5.1940   -2.8390   -4.2640 C   0  0  0  0  0  0  0  0  0  0  0  0
   -6.0850   -2.0780   -5.0070 C   0  0  0  0  0  0  0  0  0  0  0  0
   -7.3470   -1.9600   -4.6270 N   0  0  0  0  0  0  0  0  0  0  0  0
  -12.1450   -0.9640   -2.3390 O   0  0  0  0  0  0  0  0  0  0  0  0
  -18.7610   -1.8760   -2.7390 F   0  0  0  0  0  0  0  0  0  0  0  0
  -18.4550    0.3250   -2.2750 F   0  0  0  0  0  0  0  0  0  0  0  0
  -19.1950   -1.1300   -0.7370 F   0  0  0  0  0  0  0  0  0  0  0  0
   -9.7920   -3.7475   -2.8656 C   0  0  0  0  0  0  0  0  0  0  0  0
  -10.0717   -1.8029   -4.3549 C   0  0  0  0  0  0  0  0  0  0  0  0
  -10.0419   -4.6597   -4.1091 C   0  0  0  0  0  0  0  0  0  0  0  0
  -10.3271   -4.0944   -5.2068 O   0  0  0  0  0  0  0  0  0  0  0  0
  -10.6208   -5.0251   -6.3085 C   0  0  0  0  0  0  0  0  0  0  0  0
   -9.7706   -5.6447   -6.8984 C   0  0  0  0  0  0  0  0  0  0  0  0
  -11.9563   -5.1030   -6.7961 N   0  0  0  0  0  0  0  0  0  0  0  0
  1  2  2  0
  2  3  1  0
  2 16  1  0
  3  4  1  0
  3  6  2  0
  4  5  1  0
  6  7  1  0
  7 15  1  0
  7  8  1  0
 11 12  1  0
 12 28  1  0
 12 27  1  0
 12 26  1  0
 15 16  1  0
 15 25  2  0
 16 17  1  0
 17 18  1  0
 18 19  1  0
 18 29  1  0
 18 30  1  0
 29 31  2  3
 31 32  1  0
 32 33  1  0
 33 34  2  0
 33 35  1  0
  8  9  2  0
  9 10  1  0
 10 11  2  0
 11 13  1  0
 13 14  2  0
 14  8  1  0
 19 20  2  0
 20 21  1  0
 21 22  2  0
 22 23  1  0
 23 24  2  0
 24 19  1  0
M  END

$$$$
No_373-gen_results_new/Mpro_new_generate_500/2024-01-19-21-58-56/
     RDKit          3D

 31 33  0  0  0  0  0  0  0  0999 V2000
   -9.1300   -2.9100    0.4520 O   0  0  0  0  0  0  0  0  0  0  0  0
  -10.2490   -2.6420    0.1800 C   0  0  0  0  0  0  0  0  0  0  0  0
  -11.3800   -3.0650    1.0860 C   0  0  0  0  0  0  0  0  0  0  0  0
  -11.2000   -3.8390    2.3880 C   0  0  0  0  0  0  0  0  0  0  0  0
  -10.9900   -5.0690    2.3420 N   0  0  0  0  0  0  0  0  0  0  0  0
  -12.7310   -2.7290    0.7330 N   0  0  0  0  0  0  0  0  0  0  0  0
  -12.9960   -1.9940   -0.4510 N   0  0  0  0  0  0  0  0  0  0  0  0
  -14.3580   -1.6940   -0.7530 C   0  0  0  0  0  0  0  0  0  0  0  0
  -15.0390   -0.7180   -0.0560 C   0  0  0  0  0  0  0  0  0  0  0  0
  -16.3510   -0.4690   -0.3980 C   0  0  0  0  0  0  0  0  0  0  0  0
  -16.9430   -1.2030   -1.4080 C   0  0  0  0  0  0  0  0  0  0  0  0
  -18.3840   -0.9560   -1.8060 C   0  0  0  0  0  0  0  0  0  0  0  0
  -16.2510   -2.1690   -2.1000 C   0  0  0  0  0  0  0  0  0  0  0  0
  -14.9490   -2.4160   -1.7590 C   0  0  0  0  0  0  0  0  0  0  0  0
  -11.9050   -1.5730   -1.3540 C   0  0  0  0  0  0  0  0  0  0  0  0
  -10.5280   -1.9050   -1.0240 N   0  0  0  0  0  0  0  0  0  0  0  0
   -9.4550   -1.4720   -1.9190 C   0  0  0  0  0  0  0  0  0  0  0  0
   -9.2820   -2.3940   -3.1270 C   0  0  0  0  0  0  0  0  0  0  0  0
   -7.8170   -2.5500   -3.5360 C   0  0  0  0  0  0  0  0  0  0  0  0
   -6.9720   -3.3210   -2.7550 C   0  0  0  0  0  0  0  0  0  0  0  0
   -5.6390   -3.4770   -3.1110 C   0  0  0  0  0  0  0  0  0  0  0  0
   -5.1940   -2.8390   -4.2640 C   0  0  0  0  0  0  0  0  0  0  0  0
   -6.0850   -2.0780   -5.0070 C   0  0  0  0  0  0  0  0  0  0  0  0
   -7.3470   -1.9600   -4.6270 N   0  0  0  0  0  0  0  0  0  0  0  0
  -12.1450   -0.9640   -2.3390 O   0  0  0  0  0  0  0  0  0  0  0  0
  -18.7610   -1.8760   -2.7390 F   0  0  0  0  0  0  0  0  0  0  0  0
  -18.4550    0.3250   -2.2750 F   0  0  0  0  0  0  0  0  0  0  0  0
  -19.1950   -1.1300   -0.7370 F   0  0  0  0  0  0  0  0  0  0  0  0
  -10.1467   -3.0903   -3.8357 C   0  0  0  0  0  0  0  0  0  0  0  0
  -10.1176   -2.2481   -3.6828 S   0  0  0  0  0  0  0  0  0  0  0  0
  -10.5091   -1.1860   -5.0635 C   0  0  0  0  0  0  0  0  0  0  0  0
  1  2  2  0
  2  3  1  0
  2 16  1  0
  3  4  1  0
  3  6  2  0
  4  5  1  0
  6  7  1  0
  7 15  1  0
  7  8  1  0
 11 12  1  0
 12 28  1  0
 12 27  1  0
 12 26  1  0
 15 16  1  0
 15 25  2  0
 16 17  1  0
 17 18  1  0
 18 19  1  0
 18 29  1  0
 18 30  1  0
 30 31  1  0
  8  9  2  0
  9 10  1  0
 10 11  2  0
 11 13  1  0
 13 14  2  0
 14  8  1  0
 19 20  2  0
 20 21  1  0
 21 22  2  0
 22 23  1  0
 23 24  2  0
 24 19  1  0
M  END

$$$$
No_374-gen_results_new/Mpro_new_generate_500/2024-01-19-21-58-56/
     RDKit          3D

 35 38  0  0  0  0  0  0  0  0999 V2000
   -9.1300   -2.9100    0.4520 O   0  0  0  0  0  0  0  0  0  0  0  0
  -10.2490   -2.6420    0.1800 C   0  0  0  0  0  0  0  0  0  0  0  0
  -11.3800   -3.0650    1.0860 C   0  0  0  0  0  0  0  0  0  0  0  0
  -11.2000   -3.8390    2.3880 C   0  0  0  0  0  0  0  0  0  0  0  0
  -10.9900   -5.0690    2.3420 N   0  0  0  0  0  0  0  0  0  0  0  0
  -12.7310   -2.7290    0.7330 N   0  0  0  0  0  0  0  0  0  0  0  0
  -12.9960   -1.9940   -0.4510 N   0  0  0  0  0  0  0  0  0  0  0  0
  -14.3580   -1.6940   -0.7530 C   0  0  0  0  0  0  0  0  0  0  0  0
  -15.0390   -0.7180   -0.0560 C   0  0  0  0  0  0  0  0  0  0  0  0
  -16.3510   -0.4690   -0.3980 C   0  0  0  0  0  0  0  0  0  0  0  0
  -16.9430   -1.2030   -1.4080 C   0  0  0  0  0  0  0  0  0  0  0  0
  -18.3840   -0.9560   -1.8060 C   0  0  0  0  0  0  0  0  0  0  0  0
  -16.2510   -2.1690   -2.1000 C   0  0  0  0  0  0  0  0  0  0  0  0
  -14.9490   -2.4160   -1.7590 C   0  0  0  0  0  0  0  0  0  0  0  0
  -11.9050   -1.5730   -1.3540 C   0  0  0  0  0  0  0  0  0  0  0  0
  -10.5280   -1.9050   -1.0240 N   0  0  0  0  0  0  0  0  0  0  0  0
   -9.4550   -1.4720   -1.9190 C   0  0  0  0  0  0  0  0  0  0  0  0
   -9.2820   -2.3940   -3.1270 C   0  0  0  0  0  0  0  0  0  0  0  0
   -7.8170   -2.5500   -3.5360 C   0  0  0  0  0  0  0  0  0  0  0  0
   -6.9720   -3.3210   -2.7550 C   0  0  0  0  0  0  0  0  0  0  0  0
   -5.6390   -3.4770   -3.1110 C   0  0  0  0  0  0  0  0  0  0  0  0
   -5.1940   -2.8390   -4.2640 C   0  0  0  0  0  0  0  0  0  0  0  0
   -6.0850   -2.0780   -5.0070 C   0  0  0  0  0  0  0  0  0  0  0  0
   -7.3470   -1.9600   -4.6270 N   0  0  0  0  0  0  0  0  0  0  0  0
  -12.1450   -0.9640   -2.3390 O   0  0  0  0  0  0  0  0  0  0  0  0
  -18.7610   -1.8760   -2.7390 F   0  0  0  0  0  0  0  0  0  0  0  0
  -18.4550    0.3250   -2.2750 F   0  0  0  0  0  0  0  0  0  0  0  0
  -19.1950   -1.1300   -0.7370 F   0  0  0  0  0  0  0  0  0  0  0  0
  -10.0453   -2.0069   -4.3181 C   0  0  0  0  0  0  0  0  0  0  0  0
   -9.8903   -3.8143   -2.9484 C   0  0  0  0  0  0  0  0  0  0  0  0
  -10.2391   -4.6422   -4.0501 C   0  0  0  0  0  0  0  0  0  0  0  0
  -11.0818   -5.8085   -3.8959 O   0  0  0  0  0  0  0  0  0  0  0  0
  -12.0388   -5.4256   -4.9227 C   0  0  0  0  0  0  0  0  0  0  0  0
  -11.4585   -4.5914   -5.8803 C   0  0  0  0  0  0  0  0  0  0  0  0
  -10.4441   -3.9663   -5.1274 O   0  0  0  0  0  0  0  0  0  0  0  0
  1  2  2  0
  2  3  1  0
  2 16  1  0
  3  4  1  0
  3  6  2  0
  4  5  1  0
  6  7  1  0
  7 15  1  0
  7  8  1  0
 11 12  1  0
 12 28  1  0
 12 27  1  0
 12 26  1  0
 15 16  1  0
 15 25  2  0
 16 17  1  0
 17 18  1  0
 18 19  1  0
 18 29  1  0
 18 30  1  0
 30 31  2  3
 31 32  1  0
 32 33  1  0
 33 34  1  0
 31 35  1  0
 34 35  1  0
  8  9  2  0
  9 10  1  0
 10 11  2  0
 11 13  1  0
 13 14  2  0
 14  8  1  0
 19 20  2  0
 20 21  1  0
 21 22  2  0
 22 23  1  0
 23 24  2  0
 24 19  1  0
M  END

$$$$
No_375-gen_results_new/Mpro_new_generate_500/2024-01-19-21-58-56/
     RDKit          3D

 32 34  0  0  0  0  0  0  0  0999 V2000
   -9.1300   -2.9100    0.4520 O   0  0  0  0  0  0  0  0  0  0  0  0
  -10.2490   -2.6420    0.1800 C   0  0  0  0  0  0  0  0  0  0  0  0
  -11.3800   -3.0650    1.0860 C   0  0  0  0  0  0  0  0  0  0  0  0
  -11.2000   -3.8390    2.3880 C   0  0  0  0  0  0  0  0  0  0  0  0
  -10.9900   -5.0690    2.3420 N   0  0  0  0  0  0  0  0  0  0  0  0
  -12.7310   -2.7290    0.7330 N   0  0  0  0  0  0  0  0  0  0  0  0
  -12.9960   -1.9940   -0.4510 N   0  0  0  0  0  0  0  0  0  0  0  0
  -14.3580   -1.6940   -0.7530 C   0  0  0  0  0  0  0  0  0  0  0  0
  -15.0390   -0.7180   -0.0560 C   0  0  0  0  0  0  0  0  0  0  0  0
  -16.3510   -0.4690   -0.3980 C   0  0  0  0  0  0  0  0  0  0  0  0
  -16.9430   -1.2030   -1.4080 C   0  0  0  0  0  0  0  0  0  0  0  0
  -18.3840   -0.9560   -1.8060 C   0  0  0  0  0  0  0  0  0  0  0  0
  -16.2510   -2.1690   -2.1000 C   0  0  0  0  0  0  0  0  0  0  0  0
  -14.9490   -2.4160   -1.7590 C   0  0  0  0  0  0  0  0  0  0  0  0
  -11.9050   -1.5730   -1.3540 C   0  0  0  0  0  0  0  0  0  0  0  0
  -10.5280   -1.9050   -1.0240 N   0  0  0  0  0  0  0  0  0  0  0  0
   -9.4550   -1.4720   -1.9190 C   0  0  0  0  0  0  0  0  0  0  0  0
   -9.2820   -2.3940   -3.1270 C   0  0  0  0  0  0  0  0  0  0  0  0
   -7.8170   -2.5500   -3.5360 C   0  0  0  0  0  0  0  0  0  0  0  0
   -6.9720   -3.3210   -2.7550 C   0  0  0  0  0  0  0  0  0  0  0  0
   -5.6390   -3.4770   -3.1110 C   0  0  0  0  0  0  0  0  0  0  0  0
   -5.1940   -2.8390   -4.2640 C   0  0  0  0  0  0  0  0  0  0  0  0
   -6.0850   -2.0780   -5.0070 C   0  0  0  0  0  0  0  0  0  0  0  0
   -7.3470   -1.9600   -4.6270 N   0  0  0  0  0  0  0  0  0  0  0  0
  -12.1450   -0.9640   -2.3390 O   0  0  0  0  0  0  0  0  0  0  0  0
  -18.7610   -1.8760   -2.7390 F   0  0  0  0  0  0  0  0  0  0  0  0
  -18.4550    0.3250   -2.2750 F   0  0  0  0  0  0  0  0  0  0  0  0
  -19.1950   -1.1300   -0.7370 F   0  0  0  0  0  0  0  0  0  0  0  0
  -10.1467   -3.0903   -3.8357 C   0  0  0  0  0  0  0  0  0  0  0  0
  -10.3179   -2.6325   -3.8272 S   0  0  0  0  0  0  0  0  0  0  0  0
  -11.4162   -2.8506   -3.8914 C   0  0  0  0  0  0  0  0  0  0  0  0
  -10.1933   -1.7653   -5.3320 O   0  0  0  0  0  0  0  0  0  0  0  0
  1  2  2  0
  2  3  1  0
  2 16  1  0
  3  4  1  0
  3  6  2  0
  4  5  1  0
  6  7  1  0
  7 15  1  0
  7  8  1  0
 11 12  1  0
 12 28  1  0
 12 27  1  0
 12 26  1  0
 15 16  1  0
 15 25  2  0
 16 17  1  0
 17 18  1  0
 18 19  1  0
 18 29  1  0
 29 30  1  0
 30 31  1  0
 30 32  2  0
  8  9  2  0
  9 10  1  0
 10 11  2  0
 11 13  1  0
 13 14  2  0
 14  8  1  0
 19 20  2  0
 20 21  1  0
 21 22  2  0
 22 23  1  0
 23 24  2  0
 24 19  1  0
M  END

$$$$
No_376-gen_results_new/Mpro_new_generate_500/2024-01-19-21-58-56/
     RDKit          3D

 35 38  0  0  0  0  0  0  0  0999 V2000
   -9.1300   -2.9100    0.4520 O   0  0  0  0  0  0  0  0  0  0  0  0
  -10.2490   -2.6420    0.1800 C   0  0  0  0  0  0  0  0  0  0  0  0
  -11.3800   -3.0650    1.0860 C   0  0  0  0  0  0  0  0  0  0  0  0
  -11.2000   -3.8390    2.3880 C   0  0  0  0  0  0  0  0  0  0  0  0
  -10.9900   -5.0690    2.3420 N   0  0  0  0  0  0  0  0  0  0  0  0
  -12.7310   -2.7290    0.7330 N   0  0  0  0  0  0  0  0  0  0  0  0
  -12.9960   -1.9940   -0.4510 N   0  0  0  0  0  0  0  0  0  0  0  0
  -14.3580   -1.6940   -0.7530 C   0  0  0  0  0  0  0  0  0  0  0  0
  -15.0390   -0.7180   -0.0560 C   0  0  0  0  0  0  0  0  0  0  0  0
  -16.3510   -0.4690   -0.3980 C   0  0  0  0  0  0  0  0  0  0  0  0
  -16.9430   -1.2030   -1.4080 C   0  0  0  0  0  0  0  0  0  0  0  0
  -18.3840   -0.9560   -1.8060 C   0  0  0  0  0  0  0  0  0  0  0  0
  -16.2510   -2.1690   -2.1000 C   0  0  0  0  0  0  0  0  0  0  0  0
  -14.9490   -2.4160   -1.7590 C   0  0  0  0  0  0  0  0  0  0  0  0
  -11.9050   -1.5730   -1.3540 C   0  0  0  0  0  0  0  0  0  0  0  0
  -10.5280   -1.9050   -1.0240 N   0  0  0  0  0  0  0  0  0  0  0  0
   -9.4550   -1.4720   -1.9190 C   0  0  0  0  0  0  0  0  0  0  0  0
   -9.2820   -2.3940   -3.1270 C   0  0  0  0  0  0  0  0  0  0  0  0
   -7.8170   -2.5500   -3.5360 C   0  0  0  0  0  0  0  0  0  0  0  0
   -6.9720   -3.3210   -2.7550 C   0  0  0  0  0  0  0  0  0  0  0  0
   -5.6390   -3.4770   -3.1110 C   0  0  0  0  0  0  0  0  0  0  0  0
   -5.1940   -2.8390   -4.2640 C   0  0  0  0  0  0  0  0  0  0  0  0
   -6.0850   -2.0780   -5.0070 C   0  0  0  0  0  0  0  0  0  0  0  0
   -7.3470   -1.9600   -4.6270 N   0  0  0  0  0  0  0  0  0  0  0  0
  -12.1450   -0.9640   -2.3390 O   0  0  0  0  0  0  0  0  0  0  0  0
  -18.7610   -1.8760   -2.7390 F   0  0  0  0  0  0  0  0  0  0  0  0
  -18.4550    0.3250   -2.2750 F   0  0  0  0  0  0  0  0  0  0  0  0
  -19.1950   -1.1300   -0.7370 F   0  0  0  0  0  0  0  0  0  0  0  0
  -10.0453   -2.0069   -4.3181 C   0  0  0  0  0  0  0  0  0  0  0  0
   -9.8903   -3.8143   -2.9484 C   0  0  0  0  0  0  0  0  0  0  0  0
  -10.2391   -4.6422   -4.0501 C   0  0  0  0  0  0  0  0  0  0  0  0
  -11.0860   -5.8267   -3.9051 C   0  0  0  0  0  0  0  0  0  0  0  0
  -11.3552   -6.2109   -5.1734 O   0  0  0  0  0  0  0  0  0  0  0  0
  -10.9730   -5.1108   -6.0280 C   0  0  0  0  0  0  0  0  0  0  0  0
  -10.2793   -4.2202   -5.2819 O   0  0  0  0  0  0  0  0  0  0  0  0
  1  2  2  0
  2  3  1  0
  2 16  1  0
  3  4  1  0
  3  6  2  0
  4  5  1  0
  6  7  1  0
  7 15  1  0
  7  8  1  0
 11 12  1  0
 12 28  1  0
 12 27  1  0
 12 26  1  0
 15 16  1  0
 15 25  2  0
 16 17  1  0
 17 18  1  0
 18 19  1  0
 18 29  1  0
 18 30  1  0
 30 31  2  3
 31 32  1  0
 32 33  1  0
 33 34  1  0
 31 35  1  0
 34 35  1  0
  8  9  2  0
  9 10  1  0
 10 11  2  0
 11 13  1  0
 13 14  2  0
 14  8  1  0
 19 20  2  0
 20 21  1  0
 21 22  2  0
 22 23  1  0
 23 24  2  0
 24 19  1  0
M  END

$$$$
No_377-gen_results_new/Mpro_new_generate_500/2024-01-19-21-58-56/
     RDKit          3D

 35 37  0  0  0  0  0  0  0  0999 V2000
   -9.1300   -2.9100    0.4520 O   0  0  0  0  0  0  0  0  0  0  0  0
  -10.2490   -2.6420    0.1800 C   0  0  0  0  0  0  0  0  0  0  0  0
  -11.3800   -3.0650    1.0860 C   0  0  0  0  0  0  0  0  0  0  0  0
  -11.2000   -3.8390    2.3880 C   0  0  0  0  0  0  0  0  0  0  0  0
  -10.9900   -5.0690    2.3420 N   0  0  0  0  0  0  0  0  0  0  0  0
  -12.7310   -2.7290    0.7330 N   0  0  0  0  0  0  0  0  0  0  0  0
  -12.9960   -1.9940   -0.4510 N   0  0  0  0  0  0  0  0  0  0  0  0
  -14.3580   -1.6940   -0.7530 C   0  0  0  0  0  0  0  0  0  0  0  0
  -15.0390   -0.7180   -0.0560 C   0  0  0  0  0  0  0  0  0  0  0  0
  -16.3510   -0.4690   -0.3980 C   0  0  0  0  0  0  0  0  0  0  0  0
  -16.9430   -1.2030   -1.4080 C   0  0  0  0  0  0  0  0  0  0  0  0
  -18.3840   -0.9560   -1.8060 C   0  0  0  0  0  0  0  0  0  0  0  0
  -16.2510   -2.1690   -2.1000 C   0  0  0  0  0  0  0  0  0  0  0  0
  -14.9490   -2.4160   -1.7590 C   0  0  0  0  0  0  0  0  0  0  0  0
  -11.9050   -1.5730   -1.3540 C   0  0  0  0  0  0  0  0  0  0  0  0
  -10.5280   -1.9050   -1.0240 N   0  0  0  0  0  0  0  0  0  0  0  0
   -9.4550   -1.4720   -1.9190 C   0  0  0  0  0  0  0  0  0  0  0  0
   -9.2820   -2.3940   -3.1270 C   0  0  0  0  0  0  0  0  0  0  0  0
   -7.8170   -2.5500   -3.5360 C   0  0  0  0  0  0  0  0  0  0  0  0
   -6.9720   -3.3210   -2.7550 C   0  0  0  0  0  0  0  0  0  0  0  0
   -5.6390   -3.4770   -3.1110 C   0  0  0  0  0  0  0  0  0  0  0  0
   -5.1940   -2.8390   -4.2640 C   0  0  0  0  0  0  0  0  0  0  0  0
   -6.0850   -2.0780   -5.0070 C   0  0  0  0  0  0  0  0  0  0  0  0
   -7.3470   -1.9600   -4.6270 N   0  0  0  0  0  0  0  0  0  0  0  0
  -12.1450   -0.9640   -2.3390 O   0  0  0  0  0  0  0  0  0  0  0  0
  -18.7610   -1.8760   -2.7390 F   0  0  0  0  0  0  0  0  0  0  0  0
  -18.4550    0.3250   -2.2750 F   0  0  0  0  0  0  0  0  0  0  0  0
  -19.1950   -1.1300   -0.7370 F   0  0  0  0  0  0  0  0  0  0  0  0
  -10.0453   -2.0069   -4.3181 C   0  0  0  0  0  0  0  0  0  0  0  0
   -9.8476   -3.8948   -2.8015 C   0  0  0  0  0  0  0  0  0  0  0  0
   -9.3106   -4.5161   -1.8185 O   0  0  0  0  0  0  0  0  0  0  0  0
  -10.7107   -4.6933   -3.6532 C   0  0  0  0  0  0  0  0  0  0  0  0
  -12.1054   -4.9503   -3.0374 C   0  0  0  0  0  0  0  0  0  0  0  0
  -13.2195   -5.1684   -3.8584 C   0  0  0  0  0  0  0  0  0  0  0  0
  -13.6416   -5.1148   -4.9196 C   0  0  0  0  0  0  0  0  0  0  0  0
  1  2  2  0
  2  3  1  0
  2 16  1  0
  3  4  1  0
  3  6  2  0
  4  5  1  0
  6  7  1  0
  7 15  1  0
  7  8  1  0
 11 12  1  0
 12 28  1  0
 12 27  1  0
 12 26  1  0
 15 16  1  0
 15 25  2  0
 16 17  1  0
 17 18  1  0
 18 19  1  0
 18 29  1  0
 18 30  1  0
 30 31  2  0
 30 32  1  0
 32 33  1  0
 33 34  1  0
 34 35  2  0
  8  9  2  0
  9 10  1  0
 10 11  2  0
 11 13  1  0
 13 14  2  0
 14  8  1  0
 19 20  2  0
 20 21  1  0
 21 22  2  0
 22 23  1  0
 23 24  2  0
 24 19  1  0
M  END

$$$$
No_378-gen_results_new/Mpro_new_generate_500/2024-01-19-21-58-56/
     RDKit          3D

 33 35  0  0  0  0  0  0  0  0999 V2000
   -9.1300   -2.9100    0.4520 O   0  0  0  0  0  0  0  0  0  0  0  0
  -10.2490   -2.6420    0.1800 C   0  0  0  0  0  0  0  0  0  0  0  0
  -11.3800   -3.0650    1.0860 C   0  0  0  0  0  0  0  0  0  0  0  0
  -11.2000   -3.8390    2.3880 C   0  0  0  0  0  0  0  0  0  0  0  0
  -10.9900   -5.0690    2.3420 N   0  0  0  0  0  0  0  0  0  0  0  0
  -12.7310   -2.7290    0.7330 N   0  0  0  0  0  0  0  0  0  0  0  0
  -12.9960   -1.9940   -0.4510 N   0  0  0  0  0  0  0  0  0  0  0  0
  -14.3580   -1.6940   -0.7530 C   0  0  0  0  0  0  0  0  0  0  0  0
  -15.0390   -0.7180   -0.0560 C   0  0  0  0  0  0  0  0  0  0  0  0
  -16.3510   -0.4690   -0.3980 C   0  0  0  0  0  0  0  0  0  0  0  0
  -16.9430   -1.2030   -1.4080 C   0  0  0  0  0  0  0  0  0  0  0  0
  -18.3840   -0.9560   -1.8060 C   0  0  0  0  0  0  0  0  0  0  0  0
  -16.2510   -2.1690   -2.1000 C   0  0  0  0  0  0  0  0  0  0  0  0
  -14.9490   -2.4160   -1.7590 C   0  0  0  0  0  0  0  0  0  0  0  0
  -11.9050   -1.5730   -1.3540 C   0  0  0  0  0  0  0  0  0  0  0  0
  -10.5280   -1.9050   -1.0240 N   0  0  0  0  0  0  0  0  0  0  0  0
   -9.4550   -1.4720   -1.9190 C   0  0  0  0  0  0  0  0  0  0  0  0
   -9.2820   -2.3940   -3.1270 C   0  0  0  0  0  0  0  0  0  0  0  0
   -7.8170   -2.5500   -3.5360 C   0  0  0  0  0  0  0  0  0  0  0  0
   -6.9720   -3.3210   -2.7550 C   0  0  0  0  0  0  0  0  0  0  0  0
   -5.6390   -3.4770   -3.1110 C   0  0  0  0  0  0  0  0  0  0  0  0
   -5.1940   -2.8390   -4.2640 C   0  0  0  0  0  0  0  0  0  0  0  0
   -6.0850   -2.0780   -5.0070 C   0  0  0  0  0  0  0  0  0  0  0  0
   -7.3470   -1.9600   -4.6270 N   0  0  0  0  0  0  0  0  0  0  0  0
  -12.1450   -0.9640   -2.3390 O   0  0  0  0  0  0  0  0  0  0  0  0
  -18.7610   -1.8760   -2.7390 F   0  0  0  0  0  0  0  0  0  0  0  0
  -18.4550    0.3250   -2.2750 F   0  0  0  0  0  0  0  0  0  0  0  0
  -19.1950   -1.1300   -0.7370 F   0  0  0  0  0  0  0  0  0  0  0  0
   -9.7920   -3.7475   -2.8656 C   0  0  0  0  0  0  0  0  0  0  0  0
  -10.0717   -1.8029   -4.3549 C   0  0  0  0  0  0  0  0  0  0  0  0
  -10.0419   -4.6597   -4.1091 C   0  0  0  0  0  0  0  0  0  0  0  0
  -11.5069   -4.7544   -4.4405 C   0  0  0  0  0  0  0  0  0  0  0  0
  -11.7359   -5.4004   -5.8493 C   0  0  0  0  0  0  0  0  0  0  0  0
  1  2  2  0
  2  3  1  0
  2 16  1  0
  3  4  1  0
  3  6  2  0
  4  5  1  0
  6  7  1  0
  7 15  1  0
  7  8  1  0
 11 12  1  0
 12 28  1  0
 12 27  1  0
 12 26  1  0
 15 16  1  0
 15 25  2  0
 16 17  1  0
 17 18  1  0
 18 19  1  0
 18 29  1  0
 18 30  1  0
 29 31  1  0
 31 32  1  0
 32 33  2  0
  8  9  2  0
  9 10  1  0
 10 11  2  0
 11 13  1  0
 13 14  2  0
 14  8  1  0
 19 20  2  0
 20 21  1  0
 21 22  2  0
 22 23  1  0
 23 24  2  0
 24 19  1  0
M  END

$$$$
No_379-gen_results_new/Mpro_new_generate_500/2024-01-19-21-58-56/
     RDKit          3D

 32 34  0  0  0  0  0  0  0  0999 V2000
   -9.1300   -2.9100    0.4520 O   0  0  0  0  0  0  0  0  0  0  0  0
  -10.2490   -2.6420    0.1800 C   0  0  0  0  0  0  0  0  0  0  0  0
  -11.3800   -3.0650    1.0860 C   0  0  0  0  0  0  0  0  0  0  0  0
  -11.2000   -3.8390    2.3880 C   0  0  0  0  0  0  0  0  0  0  0  0
  -10.9900   -5.0690    2.3420 N   0  0  0  0  0  0  0  0  0  0  0  0
  -12.7310   -2.7290    0.7330 N   0  0  0  0  0  0  0  0  0  0  0  0
  -12.9960   -1.9940   -0.4510 N   0  0  0  0  0  0  0  0  0  0  0  0
  -14.3580   -1.6940   -0.7530 C   0  0  0  0  0  0  0  0  0  0  0  0
  -15.0390   -0.7180   -0.0560 C   0  0  0  0  0  0  0  0  0  0  0  0
  -16.3510   -0.4690   -0.3980 C   0  0  0  0  0  0  0  0  0  0  0  0
  -16.9430   -1.2030   -1.4080 C   0  0  0  0  0  0  0  0  0  0  0  0
  -18.3840   -0.9560   -1.8060 C   0  0  0  0  0  0  0  0  0  0  0  0
  -16.2510   -2.1690   -2.1000 C   0  0  0  0  0  0  0  0  0  0  0  0
  -14.9490   -2.4160   -1.7590 C   0  0  0  0  0  0  0  0  0  0  0  0
  -11.9050   -1.5730   -1.3540 C   0  0  0  0  0  0  0  0  0  0  0  0
  -10.5280   -1.9050   -1.0240 N   0  0  0  0  0  0  0  0  0  0  0  0
   -9.4550   -1.4720   -1.9190 C   0  0  0  0  0  0  0  0  0  0  0  0
   -9.2820   -2.3940   -3.1270 C   0  0  0  0  0  0  0  0  0  0  0  0
   -7.8170   -2.5500   -3.5360 C   0  0  0  0  0  0  0  0  0  0  0  0
   -6.9720   -3.3210   -2.7550 C   0  0  0  0  0  0  0  0  0  0  0  0
   -5.6390   -3.4770   -3.1110 C   0  0  0  0  0  0  0  0  0  0  0  0
   -5.1940   -2.8390   -4.2640 C   0  0  0  0  0  0  0  0  0  0  0  0
   -6.0850   -2.0780   -5.0070 C   0  0  0  0  0  0  0  0  0  0  0  0
   -7.3470   -1.9600   -4.6270 N   0  0  0  0  0  0  0  0  0  0  0  0
  -12.1450   -0.9640   -2.3390 O   0  0  0  0  0  0  0  0  0  0  0  0
  -18.7610   -1.8760   -2.7390 F   0  0  0  0  0  0  0  0  0  0  0  0
  -18.4550    0.3250   -2.2750 F   0  0  0  0  0  0  0  0  0  0  0  0
  -19.1950   -1.1300   -0.7370 F   0  0  0  0  0  0  0  0  0  0  0  0
   -9.9592   -1.9070   -4.1913 F   0  0  0  0  0  0  0  0  0  0  0  0
   -9.8855   -3.8565   -2.8874 C   0  0  0  0  0  0  0  0  0  0  0  0
   -9.5089   -4.5734   -1.8437 F   0  0  0  0  0  0  0  0  0  0  0  0
  -10.6525   -4.5965   -3.8566 C   0  0  0  0  0  0  0  0  0  0  0  0
  1  2  2  0
  2  3  1  0
  2 16  1  0
  3  4  1  0
  3  6  2  0
  4  5  1  0
  6  7  1  0
  7 15  1  0
  7  8  1  0
 11 12  1  0
 12 28  1  0
 12 27  1  0
 12 26  1  0
 15 16  1  0
 15 25  2  0
 16 17  1  0
 17 18  1  0
 18 19  1  0
 18 29  1  0
 18 30  1  0
 30 31  1  0
 30 32  1  0
  8  9  2  0
  9 10  1  0
 10 11  2  0
 11 13  1  0
 13 14  2  0
 14  8  1  0
 19 20  2  0
 20 21  1  0
 21 22  2  0
 22 23  1  0
 23 24  2  0
 24 19  1  0
M  END

$$$$
No_380-gen_results_new/Mpro_new_generate_500/2024-01-19-21-58-56/
     RDKit          3D

 35 37  0  0  0  0  0  0  0  0999 V2000
   -9.1300   -2.9100    0.4520 O   0  0  0  0  0  0  0  0  0  0  0  0
  -10.2490   -2.6420    0.1800 C   0  0  0  0  0  0  0  0  0  0  0  0
  -11.3800   -3.0650    1.0860 C   0  0  0  0  0  0  0  0  0  0  0  0
  -11.2000   -3.8390    2.3880 C   0  0  0  0  0  0  0  0  0  0  0  0
  -10.9900   -5.0690    2.3420 N   0  0  0  0  0  0  0  0  0  0  0  0
  -12.7310   -2.7290    0.7330 N   0  0  0  0  0  0  0  0  0  0  0  0
  -12.9960   -1.9940   -0.4510 N   0  0  0  0  0  0  0  0  0  0  0  0
  -14.3580   -1.6940   -0.7530 C   0  0  0  0  0  0  0  0  0  0  0  0
  -15.0390   -0.7180   -0.0560 C   0  0  0  0  0  0  0  0  0  0  0  0
  -16.3510   -0.4690   -0.3980 C   0  0  0  0  0  0  0  0  0  0  0  0
  -16.9430   -1.2030   -1.4080 C   0  0  0  0  0  0  0  0  0  0  0  0
  -18.3840   -0.9560   -1.8060 C   0  0  0  0  0  0  0  0  0  0  0  0
  -16.2510   -2.1690   -2.1000 C   0  0  0  0  0  0  0  0  0  0  0  0
  -14.9490   -2.4160   -1.7590 C   0  0  0  0  0  0  0  0  0  0  0  0
  -11.9050   -1.5730   -1.3540 C   0  0  0  0  0  0  0  0  0  0  0  0
  -10.5280   -1.9050   -1.0240 N   0  0  0  0  0  0  0  0  0  0  0  0
   -9.4550   -1.4720   -1.9190 C   0  0  0  0  0  0  0  0  0  0  0  0
   -9.2820   -2.3940   -3.1270 C   0  0  0  0  0  0  0  0  0  0  0  0
   -7.8170   -2.5500   -3.5360 C   0  0  0  0  0  0  0  0  0  0  0  0
   -6.9720   -3.3210   -2.7550 C   0  0  0  0  0  0  0  0  0  0  0  0
   -5.6390   -3.4770   -3.1110 C   0  0  0  0  0  0  0  0  0  0  0  0
   -5.1940   -2.8390   -4.2640 C   0  0  0  0  0  0  0  0  0  0  0  0
   -6.0850   -2.0780   -5.0070 C   0  0  0  0  0  0  0  0  0  0  0  0
   -7.3470   -1.9600   -4.6270 N   0  0  0  0  0  0  0  0  0  0  0  0
  -12.1450   -0.9640   -2.3390 O   0  0  0  0  0  0  0  0  0  0  0  0
  -18.7610   -1.8760   -2.7390 F   0  0  0  0  0  0  0  0  0  0  0  0
  -18.4550    0.3250   -2.2750 F   0  0  0  0  0  0  0  0  0  0  0  0
  -19.1950   -1.1300   -0.7370 F   0  0  0  0  0  0  0  0  0  0  0  0
   -9.7920   -3.7475   -2.8656 C   0  0  0  0  0  0  0  0  0  0  0  0
  -10.0717   -1.8029   -4.3549 C   0  0  0  0  0  0  0  0  0  0  0  0
  -10.0419   -4.6597   -4.1091 C   0  0  0  0  0  0  0  0  0  0  0  0
  -11.5069   -4.7544   -4.4405 C   0  0  0  0  0  0  0  0  0  0  0  0
  -12.5650   -5.0200   -3.5399 C   0  0  0  0  0  0  0  0  0  0  0  0
   -9.2617   -5.3029   -4.7997 O   0  0  0  0  0  0  0  0  0  0  0  0
  -13.4568   -6.0155   -3.5343 C   0  0  0  0  0  0  0  0  0  0  0  0
  1  2  2  0
  2  3  1  0
  2 16  1  0
  3  4  1  0
  3  6  2  0
  4  5  1  0
  6  7  1  0
  7 15  1  0
  7  8  1  0
 11 12  1  0
 12 28  1  0
 12 27  1  0
 12 26  1  0
 15 16  1  0
 15 25  2  0
 16 17  1  0
 17 18  1  0
 18 19  1  0
 18 29  1  0
 18 30  1  0
 29 31  1  0
 31 32  1  0
 32 33  1  0
 31 34  2  0
 33 35  2  0
  8  9  2  0
  9 10  1  0
 10 11  2  0
 11 13  1  0
 13 14  2  0
 14  8  1  0
 19 20  2  0
 20 21  1  0
 21 22  2  0
 22 23  1  0
 23 24  2  0
 24 19  1  0
M  END

$$$$
No_381-gen_results_new/Mpro_new_generate_500/2024-01-19-21-58-56/
     RDKit          3D

 35 37  0  0  0  0  0  0  0  0999 V2000
   -9.1300   -2.9100    0.4520 O   0  0  0  0  0  0  0  0  0  0  0  0
  -10.2490   -2.6420    0.1800 C   0  0  0  0  0  0  0  0  0  0  0  0
  -11.3800   -3.0650    1.0860 C   0  0  0  0  0  0  0  0  0  0  0  0
  -11.2000   -3.8390    2.3880 C   0  0  0  0  0  0  0  0  0  0  0  0
  -10.9900   -5.0690    2.3420 N   0  0  0  0  0  0  0  0  0  0  0  0
  -12.7310   -2.7290    0.7330 N   0  0  0  0  0  0  0  0  0  0  0  0
  -12.9960   -1.9940   -0.4510 N   0  0  0  0  0  0  0  0  0  0  0  0
  -14.3580   -1.6940   -0.7530 C   0  0  0  0  0  0  0  0  0  0  0  0
  -15.0390   -0.7180   -0.0560 C   0  0  0  0  0  0  0  0  0  0  0  0
  -16.3510   -0.4690   -0.3980 C   0  0  0  0  0  0  0  0  0  0  0  0
  -16.9430   -1.2030   -1.4080 C   0  0  0  0  0  0  0  0  0  0  0  0
  -18.3840   -0.9560   -1.8060 C   0  0  0  0  0  0  0  0  0  0  0  0
  -16.2510   -2.1690   -2.1000 C   0  0  0  0  0  0  0  0  0  0  0  0
  -14.9490   -2.4160   -1.7590 C   0  0  0  0  0  0  0  0  0  0  0  0
  -11.9050   -1.5730   -1.3540 C   0  0  0  0  0  0  0  0  0  0  0  0
  -10.5280   -1.9050   -1.0240 N   0  0  0  0  0  0  0  0  0  0  0  0
   -9.4550   -1.4720   -1.9190 C   0  0  0  0  0  0  0  0  0  0  0  0
   -9.2820   -2.3940   -3.1270 C   0  0  0  0  0  0  0  0  0  0  0  0
   -7.8170   -2.5500   -3.5360 C   0  0  0  0  0  0  0  0  0  0  0  0
   -6.9720   -3.3210   -2.7550 C   0  0  0  0  0  0  0  0  0  0  0  0
   -5.6390   -3.4770   -3.1110 C   0  0  0  0  0  0  0  0  0  0  0  0
   -5.1940   -2.8390   -4.2640 C   0  0  0  0  0  0  0  0  0  0  0  0
   -6.0850   -2.0780   -5.0070 C   0  0  0  0  0  0  0  0  0  0  0  0
   -7.3470   -1.9600   -4.6270 N   0  0  0  0  0  0  0  0  0  0  0  0
  -12.1450   -0.9640   -2.3390 O   0  0  0  0  0  0  0  0  0  0  0  0
  -18.7610   -1.8760   -2.7390 F   0  0  0  0  0  0  0  0  0  0  0  0
  -18.4550    0.3250   -2.2750 F   0  0  0  0  0  0  0  0  0  0  0  0
  -19.1950   -1.1300   -0.7370 F   0  0  0  0  0  0  0  0  0  0  0  0
   -9.7920   -3.7475   -2.8656 C   0  0  0  0  0  0  0  0  0  0  0  0
  -10.0717   -1.8029   -4.3549 C   0  0  0  0  0  0  0  0  0  0  0  0
  -10.0419   -4.6597   -4.1091 C   0  0  0  0  0  0  0  0  0  0  0  0
   -9.7679   -6.0897   -3.9414 C   0  0  0  0  0  0  0  0  0  0  0  0
   -9.2402   -6.5437   -5.3160 C   0  0  0  0  0  0  0  0  0  0  0  0
   -8.3575   -7.5691   -5.2874 O   0  0  0  0  0  0  0  0  0  0  0  0
   -9.2021   -5.5711   -6.3875 C   0  0  0  0  0  0  0  0  0  0  0  0
  1  2  2  0
  2  3  1  0
  2 16  1  0
  3  4  1  0
  3  6  2  0
  4  5  1  0
  6  7  1  0
  7 15  1  0
  7  8  1  0
 11 12  1  0
 12 28  1  0
 12 27  1  0
 12 26  1  0
 15 16  1  0
 15 25  2  0
 16 17  1  0
 17 18  1  0
 18 19  1  0
 18 29  1  0
 18 30  1  0
 29 31  2  3
 31 32  1  0
 32 33  1  0
 33 34  2  0
 33 35  1  0
  8  9  2  0
  9 10  1  0
 10 11  2  0
 11 13  1  0
 13 14  2  0
 14  8  1  0
 19 20  2  0
 20 21  1  0
 21 22  2  0
 22 23  1  0
 23 24  2  0
 24 19  1  0
M  END

$$$$
No_382-gen_results_new/Mpro_new_generate_500/2024-01-19-21-58-56/
     RDKit          3D

 34 36  0  0  0  0  0  0  0  0999 V2000
   -9.1300   -2.9100    0.4520 O   0  0  0  0  0  0  0  0  0  0  0  0
  -10.2490   -2.6420    0.1800 C   0  0  0  0  0  0  0  0  0  0  0  0
  -11.3800   -3.0650    1.0860 C   0  0  0  0  0  0  0  0  0  0  0  0
  -11.2000   -3.8390    2.3880 C   0  0  0  0  0  0  0  0  0  0  0  0
  -10.9900   -5.0690    2.3420 N   0  0  0  0  0  0  0  0  0  0  0  0
  -12.7310   -2.7290    0.7330 N   0  0  0  0  0  0  0  0  0  0  0  0
  -12.9960   -1.9940   -0.4510 N   0  0  0  0  0  0  0  0  0  0  0  0
  -14.3580   -1.6940   -0.7530 C   0  0  0  0  0  0  0  0  0  0  0  0
  -15.0390   -0.7180   -0.0560 C   0  0  0  0  0  0  0  0  0  0  0  0
  -16.3510   -0.4690   -0.3980 C   0  0  0  0  0  0  0  0  0  0  0  0
  -16.9430   -1.2030   -1.4080 C   0  0  0  0  0  0  0  0  0  0  0  0
  -18.3840   -0.9560   -1.8060 C   0  0  0  0  0  0  0  0  0  0  0  0
  -16.2510   -2.1690   -2.1000 C   0  0  0  0  0  0  0  0  0  0  0  0
  -14.9490   -2.4160   -1.7590 C   0  0  0  0  0  0  0  0  0  0  0  0
  -11.9050   -1.5730   -1.3540 C   0  0  0  0  0  0  0  0  0  0  0  0
  -10.5280   -1.9050   -1.0240 N   0  0  0  0  0  0  0  0  0  0  0  0
   -9.4550   -1.4720   -1.9190 C   0  0  0  0  0  0  0  0  0  0  0  0
   -9.2820   -2.3940   -3.1270 C   0  0  0  0  0  0  0  0  0  0  0  0
   -7.8170   -2.5500   -3.5360 C   0  0  0  0  0  0  0  0  0  0  0  0
   -6.9720   -3.3210   -2.7550 C   0  0  0  0  0  0  0  0  0  0  0  0
   -5.6390   -3.4770   -3.1110 C   0  0  0  0  0  0  0  0  0  0  0  0
   -5.1940   -2.8390   -4.2640 C   0  0  0  0  0  0  0  0  0  0  0  0
   -6.0850   -2.0780   -5.0070 C   0  0  0  0  0  0  0  0  0  0  0  0
   -7.3470   -1.9600   -4.6270 N   0  0  0  0  0  0  0  0  0  0  0  0
  -12.1450   -0.9640   -2.3390 O   0  0  0  0  0  0  0  0  0  0  0  0
  -18.7610   -1.8760   -2.7390 F   0  0  0  0  0  0  0  0  0  0  0  0
  -18.4550    0.3250   -2.2750 F   0  0  0  0  0  0  0  0  0  0  0  0
  -19.1950   -1.1300   -0.7370 F   0  0  0  0  0  0  0  0  0  0  0  0
  -10.0453   -2.0069   -4.3181 C   0  0  0  0  0  0  0  0  0  0  0  0
   -9.9627   -4.1189   -2.7873 S   0  0  0  0  0  0  0  0  0  0  0  0
  -10.1021   -4.7703   -4.4453 C   0  0  0  0  0  0  0  0  0  0  0  0
  -10.0668   -4.7969   -1.8174 O   0  0  0  0  0  0  0  0  0  0  0  0
  -11.1646   -4.5258   -1.7327 C   0  0  0  0  0  0  0  0  0  0  0  0
  -11.7936   -5.8126   -1.8434 C   0  0  0  0  0  0  0  0  0  0  0  0
  1  2  2  0
  2  3  1  0
  2 16  1  0
  3  4  1  0
  3  6  2  0
  4  5  1  0
  6  7  1  0
  7 15  1  0
  7  8  1  0
 11 12  1  0
 12 28  1  0
 12 27  1  0
 12 26  1  0
 15 16  1  0
 15 25  2  0
 16 17  1  0
 17 18  1  0
 18 19  1  0
 18 29  1  0
 18 30  1  0
 30 31  1  0
 30 32  2  0
 30 33  1  0
 33 34  1  0
  8  9  2  0
  9 10  1  0
 10 11  2  0
 11 13  1  0
 13 14  2  0
 14  8  1  0
 19 20  2  0
 20 21  1  0
 21 22  2  0
 22 23  1  0
 23 24  2  0
 24 19  1  0
M  END

$$$$
No_383-gen_results_new/Mpro_new_generate_500/2024-01-19-21-58-56/
     RDKit          3D

 35 38  0  0  0  0  0  0  0  0999 V2000
   -9.1300   -2.9100    0.4520 O   0  0  0  0  0  0  0  0  0  0  0  0
  -10.2490   -2.6420    0.1800 C   0  0  0  0  0  0  0  0  0  0  0  0
  -11.3800   -3.0650    1.0860 C   0  0  0  0  0  0  0  0  0  0  0  0
  -11.2000   -3.8390    2.3880 C   0  0  0  0  0  0  0  0  0  0  0  0
  -10.9900   -5.0690    2.3420 N   0  0  0  0  0  0  0  0  0  0  0  0
  -12.7310   -2.7290    0.7330 N   0  0  0  0  0  0  0  0  0  0  0  0
  -12.9960   -1.9940   -0.4510 N   0  0  0  0  0  0  0  0  0  0  0  0
  -14.3580   -1.6940   -0.7530 C   0  0  0  0  0  0  0  0  0  0  0  0
  -15.0390   -0.7180   -0.0560 C   0  0  0  0  0  0  0  0  0  0  0  0
  -16.3510   -0.4690   -0.3980 C   0  0  0  0  0  0  0  0  0  0  0  0
  -16.9430   -1.2030   -1.4080 C   0  0  0  0  0  0  0  0  0  0  0  0
  -18.3840   -0.9560   -1.8060 C   0  0  0  0  0  0  0  0  0  0  0  0
  -16.2510   -2.1690   -2.1000 C   0  0  0  0  0  0  0  0  0  0  0  0
  -14.9490   -2.4160   -1.7590 C   0  0  0  0  0  0  0  0  0  0  0  0
  -11.9050   -1.5730   -1.3540 C   0  0  0  0  0  0  0  0  0  0  0  0
  -10.5280   -1.9050   -1.0240 N   0  0  0  0  0  0  0  0  0  0  0  0
   -9.4550   -1.4720   -1.9190 C   0  0  0  0  0  0  0  0  0  0  0  0
   -9.2820   -2.3940   -3.1270 C   0  0  0  0  0  0  0  0  0  0  0  0
   -7.8170   -2.5500   -3.5360 C   0  0  0  0  0  0  0  0  0  0  0  0
   -6.9720   -3.3210   -2.7550 C   0  0  0  0  0  0  0  0  0  0  0  0
   -5.6390   -3.4770   -3.1110 C   0  0  0  0  0  0  0  0  0  0  0  0
   -5.1940   -2.8390   -4.2640 C   0  0  0  0  0  0  0  0  0  0  0  0
   -6.0850   -2.0780   -5.0070 C   0  0  0  0  0  0  0  0  0  0  0  0
   -7.3470   -1.9600   -4.6270 N   0  0  0  0  0  0  0  0  0  0  0  0
  -12.1450   -0.9640   -2.3390 O   0  0  0  0  0  0  0  0  0  0  0  0
  -18.7610   -1.8760   -2.7390 F   0  0  0  0  0  0  0  0  0  0  0  0
  -18.4550    0.3250   -2.2750 F   0  0  0  0  0  0  0  0  0  0  0  0
  -19.1950   -1.1300   -0.7370 F   0  0  0  0  0  0  0  0  0  0  0  0
  -10.0453   -2.0069   -4.3181 C   0  0  0  0  0  0  0  0  0  0  0  0
   -9.8476   -3.8948   -2.8015 C   0  0  0  0  0  0  0  0  0  0  0  0
  -10.1714   -4.7331   -3.9309 C   0  0  0  0  0  0  0  0  0  0  0  0
  -10.6131   -4.1472   -4.9938 O   0  0  0  0  0  0  0  0  0  0  0  0
  -10.9143   -2.8234   -5.0615 C   0  0  0  0  0  0  0  0  0  0  0  0
  -11.3337   -2.2775   -6.4664 C   0  0  0  0  0  0  0  0  0  0  0  0
  -12.1546   -2.9657   -6.9058 F   0  0  0  0  0  0  0  0  0  0  0  0
  1  2  2  0
  2  3  1  0
  2 16  1  0
  3  4  1  0
  3  6  2  0
  4  5  1  0
  6  7  1  0
  7 15  1  0
  7  8  1  0
 11 12  1  0
 12 28  1  0
 12 27  1  0
 12 26  1  0
 15 16  1  0
 15 25  2  0
 16 17  1  0
 17 18  1  0
 18 19  1  0
 18 29  1  0
 18 30  1  0
 30 31  2  0
 31 32  1  0
 29 33  2  0
 32 33  1  0
 33 34  1  0
 34 35  1  0
  8  9  2  0
  9 10  1  0
 10 11  2  0
 11 13  1  0
 13 14  2  0
 14  8  1  0
 19 20  2  0
 20 21  1  0
 21 22  2  0
 22 23  1  0
 23 24  2  0
 24 19  1  0
M  END

$$$$
No_384-gen_results_new/Mpro_new_generate_500/2024-01-19-21-58-56/
     RDKit          3D

 33 35  0  0  0  0  0  0  0  0999 V2000
   -9.1300   -2.9100    0.4520 O   0  0  0  0  0  0  0  0  0  0  0  0
  -10.2490   -2.6420    0.1800 C   0  0  0  0  0  0  0  0  0  0  0  0
  -11.3800   -3.0650    1.0860 C   0  0  0  0  0  0  0  0  0  0  0  0
  -11.2000   -3.8390    2.3880 C   0  0  0  0  0  0  0  0  0  0  0  0
  -10.9900   -5.0690    2.3420 N   0  0  0  0  0  0  0  0  0  0  0  0
  -12.7310   -2.7290    0.7330 N   0  0  0  0  0  0  0  0  0  0  0  0
  -12.9960   -1.9940   -0.4510 N   0  0  0  0  0  0  0  0  0  0  0  0
  -14.3580   -1.6940   -0.7530 C   0  0  0  0  0  0  0  0  0  0  0  0
  -15.0390   -0.7180   -0.0560 C   0  0  0  0  0  0  0  0  0  0  0  0
  -16.3510   -0.4690   -0.3980 C   0  0  0  0  0  0  0  0  0  0  0  0
  -16.9430   -1.2030   -1.4080 C   0  0  0  0  0  0  0  0  0  0  0  0
  -18.3840   -0.9560   -1.8060 C   0  0  0  0  0  0  0  0  0  0  0  0
  -16.2510   -2.1690   -2.1000 C   0  0  0  0  0  0  0  0  0  0  0  0
  -14.9490   -2.4160   -1.7590 C   0  0  0  0  0  0  0  0  0  0  0  0
  -11.9050   -1.5730   -1.3540 C   0  0  0  0  0  0  0  0  0  0  0  0
  -10.5280   -1.9050   -1.0240 N   0  0  0  0  0  0  0  0  0  0  0  0
   -9.4550   -1.4720   -1.9190 C   0  0  0  0  0  0  0  0  0  0  0  0
   -9.2820   -2.3940   -3.1270 C   0  0  0  0  0  0  0  0  0  0  0  0
   -7.8170   -2.5500   -3.5360 C   0  0  0  0  0  0  0  0  0  0  0  0
   -6.9720   -3.3210   -2.7550 C   0  0  0  0  0  0  0  0  0  0  0  0
   -5.6390   -3.4770   -3.1110 C   0  0  0  0  0  0  0  0  0  0  0  0
   -5.1940   -2.8390   -4.2640 C   0  0  0  0  0  0  0  0  0  0  0  0
   -6.0850   -2.0780   -5.0070 C   0  0  0  0  0  0  0  0  0  0  0  0
   -7.3470   -1.9600   -4.6270 N   0  0  0  0  0  0  0  0  0  0  0  0
  -12.1450   -0.9640   -2.3390 O   0  0  0  0  0  0  0  0  0  0  0  0
  -18.7610   -1.8760   -2.7390 F   0  0  0  0  0  0  0  0  0  0  0  0
  -18.4550    0.3250   -2.2750 F   0  0  0  0  0  0  0  0  0  0  0  0
  -19.1950   -1.1300   -0.7370 F   0  0  0  0  0  0  0  0  0  0  0  0
  -10.0453   -2.0069   -4.3181 C   0  0  0  0  0  0  0  0  0  0  0  0
   -9.8480   -3.6882   -2.9621 O   0  0  0  0  0  0  0  0  0  0  0  0
  -10.8405   -4.1176   -3.7919 C   0  0  0  0  0  0  0  0  0  0  0  0
  -11.3747   -3.1509   -4.3580 F   0  0  0  0  0  0  0  0  0  0  0  0
  -11.1189   -1.0699   -4.8843 C   0  0  0  0  0  0  0  0  0  0  0  0
  1  2  2  0
  2  3  1  0
  2 16  1  0
  3  4  1  0
  3  6  2  0
  4  5  1  0
  6  7  1  0
  7 15  1  0
  7  8  1  0
 11 12  1  0
 12 28  1  0
 12 27  1  0
 12 26  1  0
 15 16  1  0
 15 25  2  0
 16 17  1  0
 17 18  1  0
 18 19  1  0
 18 29  1  0
 18 30  1  0
 30 31  1  0
 31 32  1  0
 29 33  1  0
  8  9  2  0
  9 10  1  0
 10 11  2  0
 11 13  1  0
 13 14  2  0
 14  8  1  0
 19 20  2  0
 20 21  1  0
 21 22  2  0
 22 23  1  0
 23 24  2  0
 24 19  1  0
M  END

$$$$
No_385-gen_results_new/Mpro_new_generate_500/2024-01-19-21-58-56/
     RDKit          3D

 34 37  0  0  0  0  0  0  0  0999 V2000
   -9.1300   -2.9100    0.4520 O   0  0  0  0  0  0  0  0  0  0  0  0
  -10.2490   -2.6420    0.1800 C   0  0  0  0  0  0  0  0  0  0  0  0
  -11.3800   -3.0650    1.0860 C   0  0  0  0  0  0  0  0  0  0  0  0
  -11.2000   -3.8390    2.3880 C   0  0  0  0  0  0  0  0  0  0  0  0
  -10.9900   -5.0690    2.3420 N   0  0  0  0  0  0  0  0  0  0  0  0
  -12.7310   -2.7290    0.7330 N   0  0  0  0  0  0  0  0  0  0  0  0
  -12.9960   -1.9940   -0.4510 N   0  0  0  0  0  0  0  0  0  0  0  0
  -14.3580   -1.6940   -0.7530 C   0  0  0  0  0  0  0  0  0  0  0  0
  -15.0390   -0.7180   -0.0560 C   0  0  0  0  0  0  0  0  0  0  0  0
  -16.3510   -0.4690   -0.3980 C   0  0  0  0  0  0  0  0  0  0  0  0
  -16.9430   -1.2030   -1.4080 C   0  0  0  0  0  0  0  0  0  0  0  0
  -18.3840   -0.9560   -1.8060 C   0  0  0  0  0  0  0  0  0  0  0  0
  -16.2510   -2.1690   -2.1000 C   0  0  0  0  0  0  0  0  0  0  0  0
  -14.9490   -2.4160   -1.7590 C   0  0  0  0  0  0  0  0  0  0  0  0
  -11.9050   -1.5730   -1.3540 C   0  0  0  0  0  0  0  0  0  0  0  0
  -10.5280   -1.9050   -1.0240 N   0  0  0  0  0  0  0  0  0  0  0  0
   -9.4550   -1.4720   -1.9190 C   0  0  0  0  0  0  0  0  0  0  0  0
   -9.2820   -2.3940   -3.1270 C   0  0  0  0  0  0  0  0  0  0  0  0
   -7.8170   -2.5500   -3.5360 C   0  0  0  0  0  0  0  0  0  0  0  0
   -6.9720   -3.3210   -2.7550 C   0  0  0  0  0  0  0  0  0  0  0  0
   -5.6390   -3.4770   -3.1110 C   0  0  0  0  0  0  0  0  0  0  0  0
   -5.1940   -2.8390   -4.2640 C   0  0  0  0  0  0  0  0  0  0  0  0
   -6.0850   -2.0780   -5.0070 C   0  0  0  0  0  0  0  0  0  0  0  0
   -7.3470   -1.9600   -4.6270 N   0  0  0  0  0  0  0  0  0  0  0  0
  -12.1450   -0.9640   -2.3390 O   0  0  0  0  0  0  0  0  0  0  0  0
  -18.7610   -1.8760   -2.7390 F   0  0  0  0  0  0  0  0  0  0  0  0
  -18.4550    0.3250   -2.2750 F   0  0  0  0  0  0  0  0  0  0  0  0
  -19.1950   -1.1300   -0.7370 F   0  0  0  0  0  0  0  0  0  0  0  0
  -10.0453   -2.0069   -4.3181 C   0  0  0  0  0  0  0  0  0  0  0  0
   -9.8476   -3.8948   -2.8015 C   0  0  0  0  0  0  0  0  0  0  0  0
   -9.1680   -4.8526   -2.1325 C   0  0  0  0  0  0  0  0  0  0  0  0
  -11.1739   -4.2861   -3.1669 C   0  0  0  0  0  0  0  0  0  0  0  0
   -9.5167   -5.7844   -1.9555 C   0  0  0  0  0  0  0  0  0  0  0  0
  -11.0106   -5.6481   -2.6294 C   0  0  0  0  0  0  0  0  0  0  0  0
  1  2  2  0
  2  3  1  0
  2 16  1  0
  3  4  1  0
  3  6  2  0
  4  5  1  0
  6  7  1  0
  7 15  1  0
  7  8  1  0
 11 12  1  0
 12 28  1  0
 12 27  1  0
 12 26  1  0
 15 16  1  0
 15 25  2  0
 16 17  1  0
 17 18  1  0
 18 19  1  0
 18 29  1  0
 18 30  1  0
 30 31  2  0
 30 32  1  0
 31 33  1  0
 32 34  2  0
 33 34  1  0
  8  9  2  0
  9 10  1  0
 10 11  2  0
 11 13  1  0
 13 14  2  0
 14  8  1  0
 19 20  2  0
 20 21  1  0
 21 22  2  0
 22 23  1  0
 23 24  2  0
 24 19  1  0
M  END

$$$$
No_386-gen_results_new/Mpro_new_generate_500/2024-01-19-21-58-56/
     RDKit          3D

 35 38  0  0  0  0  0  0  0  0999 V2000
   -9.1300   -2.9100    0.4520 O   0  0  0  0  0  0  0  0  0  0  0  0
  -10.2490   -2.6420    0.1800 C   0  0  0  0  0  0  0  0  0  0  0  0
  -11.3800   -3.0650    1.0860 C   0  0  0  0  0  0  0  0  0  0  0  0
  -11.2000   -3.8390    2.3880 C   0  0  0  0  0  0  0  0  0  0  0  0
  -10.9900   -5.0690    2.3420 N   0  0  0  0  0  0  0  0  0  0  0  0
  -12.7310   -2.7290    0.7330 N   0  0  0  0  0  0  0  0  0  0  0  0
  -12.9960   -1.9940   -0.4510 N   0  0  0  0  0  0  0  0  0  0  0  0
  -14.3580   -1.6940   -0.7530 C   0  0  0  0  0  0  0  0  0  0  0  0
  -15.0390   -0.7180   -0.0560 C   0  0  0  0  0  0  0  0  0  0  0  0
  -16.3510   -0.4690   -0.3980 C   0  0  0  0  0  0  0  0  0  0  0  0
  -16.9430   -1.2030   -1.4080 C   0  0  0  0  0  0  0  0  0  0  0  0
  -18.3840   -0.9560   -1.8060 C   0  0  0  0  0  0  0  0  0  0  0  0
  -16.2510   -2.1690   -2.1000 C   0  0  0  0  0  0  0  0  0  0  0  0
  -14.9490   -2.4160   -1.7590 C   0  0  0  0  0  0  0  0  0  0  0  0
  -11.9050   -1.5730   -1.3540 C   0  0  0  0  0  0  0  0  0  0  0  0
  -10.5280   -1.9050   -1.0240 N   0  0  0  0  0  0  0  0  0  0  0  0
   -9.4550   -1.4720   -1.9190 C   0  0  0  0  0  0  0  0  0  0  0  0
   -9.2820   -2.3940   -3.1270 C   0  0  0  0  0  0  0  0  0  0  0  0
   -7.8170   -2.5500   -3.5360 C   0  0  0  0  0  0  0  0  0  0  0  0
   -6.9720   -3.3210   -2.7550 C   0  0  0  0  0  0  0  0  0  0  0  0
   -5.6390   -3.4770   -3.1110 C   0  0  0  0  0  0  0  0  0  0  0  0
   -5.1940   -2.8390   -4.2640 C   0  0  0  0  0  0  0  0  0  0  0  0
   -6.0850   -2.0780   -5.0070 C   0  0  0  0  0  0  0  0  0  0  0  0
   -7.3470   -1.9600   -4.6270 N   0  0  0  0  0  0  0  0  0  0  0  0
  -12.1450   -0.9640   -2.3390 O   0  0  0  0  0  0  0  0  0  0  0  0
  -18.7610   -1.8760   -2.7390 F   0  0  0  0  0  0  0  0  0  0  0  0
  -18.4550    0.3250   -2.2750 F   0  0  0  0  0  0  0  0  0  0  0  0
  -19.1950   -1.1300   -0.7370 F   0  0  0  0  0  0  0  0  0  0  0  0
  -10.0453   -2.0069   -4.3181 C   0  0  0  0  0  0  0  0  0  0  0  0
   -9.8476   -3.8948   -2.8015 C   0  0  0  0  0  0  0  0  0  0  0  0
   -9.1680   -4.8526   -2.1325 C   0  0  0  0  0  0  0  0  0  0  0  0
  -11.1809   -4.2917   -3.1683 C   0  0  0  0  0  0  0  0  0  0  0  0
   -9.8814   -4.6111   -3.5726 C   0  0  0  0  0  0  0  0  0  0  0  0
  -10.3521   -3.7231   -1.2761 O   0  0  0  0  0  0  0  0  0  0  0  0
  -10.2052   -4.7777   -0.4598 C   0  0  0  0  0  0  0  0  0  0  0  0
  1  2  2  0
  2  3  1  0
  2 16  1  0
  3  4  1  0
  3  6  2  0
  4  5  1  0
  6  7  1  0
  7 15  1  0
  7  8  1  0
 11 12  1  0
 12 28  1  0
 12 27  1  0
 12 26  1  0
 15 16  1  0
 15 25  2  0
 16 17  1  0
 17 18  1  0
 18 19  1  0
 18 29  1  0
 18 30  1  0
 30 31  1  0
 30 32  1  0
 31 33  1  0
 32 33  1  0
 31 34  1  0
 34 35  1  0
  8  9  2  0
  9 10  1  0
 10 11  2  0
 11 13  1  0
 13 14  2  0
 14  8  1  0
 19 20  2  0
 20 21  1  0
 21 22  2  0
 22 23  1  0
 23 24  2  0
 24 19  1  0
M  END

$$$$
No_387-gen_results_new/Mpro_new_generate_500/2024-01-19-21-58-56/
     RDKit          3D

 32 34  0  0  0  0  0  0  0  0999 V2000
   -9.1300   -2.9100    0.4520 O   0  0  0  0  0  0  0  0  0  0  0  0
  -10.2490   -2.6420    0.1800 C   0  0  0  0  0  0  0  0  0  0  0  0
  -11.3800   -3.0650    1.0860 C   0  0  0  0  0  0  0  0  0  0  0  0
  -11.2000   -3.8390    2.3880 C   0  0  0  0  0  0  0  0  0  0  0  0
  -10.9900   -5.0690    2.3420 N   0  0  0  0  0  0  0  0  0  0  0  0
  -12.7310   -2.7290    0.7330 N   0  0  0  0  0  0  0  0  0  0  0  0
  -12.9960   -1.9940   -0.4510 N   0  0  0  0  0  0  0  0  0  0  0  0
  -14.3580   -1.6940   -0.7530 C   0  0  0  0  0  0  0  0  0  0  0  0
  -15.0390   -0.7180   -0.0560 C   0  0  0  0  0  0  0  0  0  0  0  0
  -16.3510   -0.4690   -0.3980 C   0  0  0  0  0  0  0  0  0  0  0  0
  -16.9430   -1.2030   -1.4080 C   0  0  0  0  0  0  0  0  0  0  0  0
  -18.3840   -0.9560   -1.8060 C   0  0  0  0  0  0  0  0  0  0  0  0
  -16.2510   -2.1690   -2.1000 C   0  0  0  0  0  0  0  0  0  0  0  0
  -14.9490   -2.4160   -1.7590 C   0  0  0  0  0  0  0  0  0  0  0  0
  -11.9050   -1.5730   -1.3540 C   0  0  0  0  0  0  0  0  0  0  0  0
  -10.5280   -1.9050   -1.0240 N   0  0  0  0  0  0  0  0  0  0  0  0
   -9.4550   -1.4720   -1.9190 C   0  0  0  0  0  0  0  0  0  0  0  0
   -9.2820   -2.3940   -3.1270 C   0  0  0  0  0  0  0  0  0  0  0  0
   -7.8170   -2.5500   -3.5360 C   0  0  0  0  0  0  0  0  0  0  0  0
   -6.9720   -3.3210   -2.7550 C   0  0  0  0  0  0  0  0  0  0  0  0
   -5.6390   -3.4770   -3.1110 C   0  0  0  0  0  0  0  0  0  0  0  0
   -5.1940   -2.8390   -4.2640 C   0  0  0  0  0  0  0  0  0  0  0  0
   -6.0850   -2.0780   -5.0070 C   0  0  0  0  0  0  0  0  0  0  0  0
   -7.3470   -1.9600   -4.6270 N   0  0  0  0  0  0  0  0  0  0  0  0
  -12.1450   -0.9640   -2.3390 O   0  0  0  0  0  0  0  0  0  0  0  0
  -18.7610   -1.8760   -2.7390 F   0  0  0  0  0  0  0  0  0  0  0  0
  -18.4550    0.3250   -2.2750 F   0  0  0  0  0  0  0  0  0  0  0  0
  -19.1950   -1.1300   -0.7370 F   0  0  0  0  0  0  0  0  0  0  0  0
   -9.7561   -3.5765   -2.9053 O   0  0  0  0  0  0  0  0  0  0  0  0
  -16.7760   -3.1571   -3.2090 C   0  0  0  0  0  0  0  0  0  0  0  0
  -16.6765   -4.4070   -2.9908 F   0  0  0  0  0  0  0  0  0  0  0  0
  -18.2841   -3.1165   -3.0034 F   0  0  0  0  0  0  0  0  0  0  0  0
  1  2  2  0
  2  3  1  0
  2 16  1  0
  3  4  1  0
  3  6  2  0
  4  5  1  0
  6  7  1  0
  7 15  1  0
  7  8  1  0
 11 12  1  0
 12 28  1  0
 12 27  1  0
 12 26  1  0
 15 16  1  0
 15 25  2  0
 16 17  1  0
 17 18  1  0
 18 19  1  0
 18 29  2  0
 13 30  1  0
 30 31  1  0
 30 32  1  0
  8  9  2  0
  9 10  1  0
 10 11  2  0
 11 13  1  0
 13 14  2  0
 14  8  1  0
 19 20  2  0
 20 21  1  0
 21 22  2  0
 22 23  1  0
 23 24  2  0
 24 19  1  0
M  END

$$$$
No_388-gen_results_new/Mpro_new_generate_500/2024-01-19-21-58-56/
     RDKit          3D

 35 38  0  0  0  0  0  0  0  0999 V2000
   -9.1300   -2.9100    0.4520 O   0  0  0  0  0  0  0  0  0  0  0  0
  -10.2490   -2.6420    0.1800 C   0  0  0  0  0  0  0  0  0  0  0  0
  -11.3800   -3.0650    1.0860 C   0  0  0  0  0  0  0  0  0  0  0  0
  -11.2000   -3.8390    2.3880 C   0  0  0  0  0  0  0  0  0  0  0  0
  -10.9900   -5.0690    2.3420 N   0  0  0  0  0  0  0  0  0  0  0  0
  -12.7310   -2.7290    0.7330 N   0  0  0  0  0  0  0  0  0  0  0  0
  -12.9960   -1.9940   -0.4510 N   0  0  0  0  0  0  0  0  0  0  0  0
  -14.3580   -1.6940   -0.7530 C   0  0  0  0  0  0  0  0  0  0  0  0
  -15.0390   -0.7180   -0.0560 C   0  0  0  0  0  0  0  0  0  0  0  0
  -16.3510   -0.4690   -0.3980 C   0  0  0  0  0  0  0  0  0  0  0  0
  -16.9430   -1.2030   -1.4080 C   0  0  0  0  0  0  0  0  0  0  0  0
  -18.3840   -0.9560   -1.8060 C   0  0  0  0  0  0  0  0  0  0  0  0
  -16.2510   -2.1690   -2.1000 C   0  0  0  0  0  0  0  0  0  0  0  0
  -14.9490   -2.4160   -1.7590 C   0  0  0  0  0  0  0  0  0  0  0  0
  -11.9050   -1.5730   -1.3540 C   0  0  0  0  0  0  0  0  0  0  0  0
  -10.5280   -1.9050   -1.0240 N   0  0  0  0  0  0  0  0  0  0  0  0
   -9.4550   -1.4720   -1.9190 C   0  0  0  0  0  0  0  0  0  0  0  0
   -9.2820   -2.3940   -3.1270 C   0  0  0  0  0  0  0  0  0  0  0  0
   -7.8170   -2.5500   -3.5360 C   0  0  0  0  0  0  0  0  0  0  0  0
   -6.9720   -3.3210   -2.7550 C   0  0  0  0  0  0  0  0  0  0  0  0
   -5.6390   -3.4770   -3.1110 C   0  0  0  0  0  0  0  0  0  0  0  0
   -5.1940   -2.8390   -4.2640 C   0  0  0  0  0  0  0  0  0  0  0  0
   -6.0850   -2.0780   -5.0070 C   0  0  0  0  0  0  0  0  0  0  0  0
   -7.3470   -1.9600   -4.6270 N   0  0  0  0  0  0  0  0  0  0  0  0
  -12.1450   -0.9640   -2.3390 O   0  0  0  0  0  0  0  0  0  0  0  0
  -18.7610   -1.8760   -2.7390 F   0  0  0  0  0  0  0  0  0  0  0  0
  -18.4550    0.3250   -2.2750 F   0  0  0  0  0  0  0  0  0  0  0  0
  -19.1950   -1.1300   -0.7370 F   0  0  0  0  0  0  0  0  0  0  0  0
  -10.0453   -2.0069   -4.3181 C   0  0  0  0  0  0  0  0  0  0  0  0
   -9.8476   -3.8948   -2.8015 C   0  0  0  0  0  0  0  0  0  0  0  0
  -10.9871   -4.2370   -3.4678 C   0  0  0  0  0  0  0  0  0  0  0  0
  -11.0932   -2.9485   -4.4299 C   0  0  0  0  0  0  0  0  0  0  0  0
  -10.2040   -0.8324   -4.6129 F   0  0  0  0  0  0  0  0  0  0  0  0
   -9.4311   -2.2793   -5.5618 F   0  0  0  0  0  0  0  0  0  0  0  0
   -9.5252   -4.6483   -1.8450 F   0  0  0  0  0  0  0  0  0  0  0  0
  1  2  2  0
  2  3  1  0
  2 16  1  0
  3  4  1  0
  3  6  2  0
  4  5  1  0
  6  7  1  0
  7 15  1  0
  7  8  1  0
 11 12  1  0
 12 28  1  0
 12 27  1  0
 12 26  1  0
 15 16  1  0
 15 25  2  0
 16 17  1  0
 17 18  1  0
 18 19  1  0
 18 29  1  0
 18 30  1  0
 30 31  1  0
 29 32  1  0
 31 32  2  0
 29 33  1  0
 29 34  1  0
 30 35  1  0
  8  9  2  0
  9 10  1  0
 10 11  2  0
 11 13  1  0
 13 14  2  0
 14  8  1  0
 19 20  2  0
 20 21  1  0
 21 22  2  0
 22 23  1  0
 23 24  2  0
 24 19  1  0
M  END

$$$$
No_389-gen_results_new/Mpro_new_generate_500/2024-01-19-21-58-56/
     RDKit          3D

 34 37  0  0  0  0  0  0  0  0999 V2000
   -9.1300   -2.9100    0.4520 O   0  0  0  0  0  0  0  0  0  0  0  0
  -10.2490   -2.6420    0.1800 C   0  0  0  0  0  0  0  0  0  0  0  0
  -11.3800   -3.0650    1.0860 C   0  0  0  0  0  0  0  0  0  0  0  0
  -11.2000   -3.8390    2.3880 C   0  0  0  0  0  0  0  0  0  0  0  0
  -10.9900   -5.0690    2.3420 N   0  0  0  0  0  0  0  0  0  0  0  0
  -12.7310   -2.7290    0.7330 N   0  0  0  0  0  0  0  0  0  0  0  0
  -12.9960   -1.9940   -0.4510 N   0  0  0  0  0  0  0  0  0  0  0  0
  -14.3580   -1.6940   -0.7530 C   0  0  0  0  0  0  0  0  0  0  0  0
  -15.0390   -0.7180   -0.0560 C   0  0  0  0  0  0  0  0  0  0  0  0
  -16.3510   -0.4690   -0.3980 C   0  0  0  0  0  0  0  0  0  0  0  0
  -16.9430   -1.2030   -1.4080 C   0  0  0  0  0  0  0  0  0  0  0  0
  -18.3840   -0.9560   -1.8060 C   0  0  0  0  0  0  0  0  0  0  0  0
  -16.2510   -2.1690   -2.1000 C   0  0  0  0  0  0  0  0  0  0  0  0
  -14.9490   -2.4160   -1.7590 C   0  0  0  0  0  0  0  0  0  0  0  0
  -11.9050   -1.5730   -1.3540 C   0  0  0  0  0  0  0  0  0  0  0  0
  -10.5280   -1.9050   -1.0240 N   0  0  0  0  0  0  0  0  0  0  0  0
   -9.4550   -1.4720   -1.9190 C   0  0  0  0  0  0  0  0  0  0  0  0
   -9.2820   -2.3940   -3.1270 C   0  0  0  0  0  0  0  0  0  0  0  0
   -7.8170   -2.5500   -3.5360 C   0  0  0  0  0  0  0  0  0  0  0  0
   -6.9720   -3.3210   -2.7550 C   0  0  0  0  0  0  0  0  0  0  0  0
   -5.6390   -3.4770   -3.1110 C   0  0  0  0  0  0  0  0  0  0  0  0
   -5.1940   -2.8390   -4.2640 C   0  0  0  0  0  0  0  0  0  0  0  0
   -6.0850   -2.0780   -5.0070 C   0  0  0  0  0  0  0  0  0  0  0  0
   -7.3470   -1.9600   -4.6270 N   0  0  0  0  0  0  0  0  0  0  0  0
  -12.1450   -0.9640   -2.3390 O   0  0  0  0  0  0  0  0  0  0  0  0
  -18.7610   -1.8760   -2.7390 F   0  0  0  0  0  0  0  0  0  0  0  0
  -18.4550    0.3250   -2.2750 F   0  0  0  0  0  0  0  0  0  0  0  0
  -19.1950   -1.1300   -0.7370 F   0  0  0  0  0  0  0  0  0  0  0  0
  -10.0453   -2.0069   -4.3181 C   0  0  0  0  0  0  0  0  0  0  0  0
   -9.8476   -3.8948   -2.8015 C   0  0  0  0  0  0  0  0  0  0  0  0
  -10.0302   -4.6229   -3.7804 O   0  0  0  0  0  0  0  0  0  0  0  0
   -8.9563   -4.7081   -1.8635 C   0  0  0  0  0  0  0  0  0  0  0  0
   -9.5351   -5.6757   -1.2249 F   0  0  0  0  0  0  0  0  0  0  0  0
   -7.3420   -4.2831   -1.6905 S   0  0  0  0  0  0  0  0  0  0  0  0
  1  2  2  0
  2  3  1  0
  2 16  1  0
  3  4  1  0
  3  6  2  0
  4  5  1  0
  6  7  1  0
  7 15  1  0
  7  8  1  0
 11 12  1  0
 12 28  1  0
 12 27  1  0
 12 26  1  0
 15 16  1  0
 15 25  2  0
 16 17  1  0
 17 18  1  0
 18 19  1  0
 18 29  1  0
 18 30  1  0
 30 31  2  0
 30 32  1  0
 32 33  1  0
 20 34  1  0
 32 34  1  0
  8  9  2  0
  9 10  1  0
 10 11  2  0
 11 13  1  0
 13 14  2  0
 14  8  1  0
 19 20  1  0
 20 21  2  0
 21 22  1  0
 22 23  2  0
 23 24  1  0
 24 19  2  0
M  END

$$$$
No_390-gen_results_new/Mpro_new_generate_500/2024-01-19-21-58-56/
     RDKit          3D

 35 37  0  0  0  0  0  0  0  0999 V2000
   -9.1300   -2.9100    0.4520 O   0  0  0  0  0  0  0  0  0  0  0  0
  -10.2490   -2.6420    0.1800 C   0  0  0  0  0  0  0  0  0  0  0  0
  -11.3800   -3.0650    1.0860 C   0  0  0  0  0  0  0  0  0  0  0  0
  -11.2000   -3.8390    2.3880 C   0  0  0  0  0  0  0  0  0  0  0  0
  -10.9900   -5.0690    2.3420 N   0  0  0  0  0  0  0  0  0  0  0  0
  -12.7310   -2.7290    0.7330 N   0  0  0  0  0  0  0  0  0  0  0  0
  -12.9960   -1.9940   -0.4510 N   0  0  0  0  0  0  0  0  0  0  0  0
  -14.3580   -1.6940   -0.7530 C   0  0  0  0  0  0  0  0  0  0  0  0
  -15.0390   -0.7180   -0.0560 C   0  0  0  0  0  0  0  0  0  0  0  0
  -16.3510   -0.4690   -0.3980 C   0  0  0  0  0  0  0  0  0  0  0  0
  -16.9430   -1.2030   -1.4080 C   0  0  0  0  0  0  0  0  0  0  0  0
  -18.3840   -0.9560   -1.8060 C   0  0  0  0  0  0  0  0  0  0  0  0
  -16.2510   -2.1690   -2.1000 C   0  0  0  0  0  0  0  0  0  0  0  0
  -14.9490   -2.4160   -1.7590 C   0  0  0  0  0  0  0  0  0  0  0  0
  -11.9050   -1.5730   -1.3540 C   0  0  0  0  0  0  0  0  0  0  0  0
  -10.5280   -1.9050   -1.0240 N   0  0  0  0  0  0  0  0  0  0  0  0
   -9.4550   -1.4720   -1.9190 C   0  0  0  0  0  0  0  0  0  0  0  0
   -9.2820   -2.3940   -3.1270 C   0  0  0  0  0  0  0  0  0  0  0  0
   -7.8170   -2.5500   -3.5360 C   0  0  0  0  0  0  0  0  0  0  0  0
   -6.9720   -3.3210   -2.7550 C   0  0  0  0  0  0  0  0  0  0  0  0
   -5.6390   -3.4770   -3.1110 C   0  0  0  0  0  0  0  0  0  0  0  0
   -5.1940   -2.8390   -4.2640 C   0  0  0  0  0  0  0  0  0  0  0  0
   -6.0850   -2.0780   -5.0070 C   0  0  0  0  0  0  0  0  0  0  0  0
   -7.3470   -1.9600   -4.6270 N   0  0  0  0  0  0  0  0  0  0  0  0
  -12.1450   -0.9640   -2.3390 O   0  0  0  0  0  0  0  0  0  0  0  0
  -18.7610   -1.8760   -2.7390 F   0  0  0  0  0  0  0  0  0  0  0  0
  -18.4550    0.3250   -2.2750 F   0  0  0  0  0  0  0  0  0  0  0  0
  -19.1950   -1.1300   -0.7370 F   0  0  0  0  0  0  0  0  0  0  0  0
  -10.0453   -2.0069   -4.3181 C   0  0  0  0  0  0  0  0  0  0  0  0
   -9.8903   -3.8143   -2.9484 C   0  0  0  0  0  0  0  0  0  0  0  0
  -10.2391   -4.6422   -4.0501 C   0  0  0  0  0  0  0  0  0  0  0  0
  -11.0860   -5.8267   -3.9051 C   0  0  0  0  0  0  0  0  0  0  0  0
  -12.1605   -5.5271   -3.4004 F   0  0  0  0  0  0  0  0  0  0  0  0
  -11.4390   -6.1732   -5.3848 C   0  0  0  0  0  0  0  0  0  0  0  0
  -10.4380   -6.7473   -3.3662 F   0  0  0  0  0  0  0  0  0  0  0  0
  1  2  2  0
  2  3  1  0
  2 16  1  0
  3  4  1  0
  3  6  2  0
  4  5  1  0
  6  7  1  0
  7 15  1  0
  7  8  1  0
 11 12  1  0
 12 28  1  0
 12 27  1  0
 12 26  1  0
 15 16  1  0
 15 25  2  0
 16 17  1  0
 17 18  1  0
 18 19  1  0
 18 29  1  0
 18 30  1  0
 30 31  2  3
 31 32  1  0
 32 33  1  0
 32 34  1  0
 32 35  1  0
  8  9  2  0
  9 10  1  0
 10 11  2  0
 11 13  1  0
 13 14  2  0
 14  8  1  0
 19 20  2  0
 20 21  1  0
 21 22  2  0
 22 23  1  0
 23 24  2  0
 24 19  1  0
M  END

$$$$
No_391-gen_results_new/Mpro_new_generate_500/2024-01-19-21-58-56/
     RDKit          3D

 34 36  0  0  0  0  0  0  0  0999 V2000
   -9.1300   -2.9100    0.4520 O   0  0  0  0  0  0  0  0  0  0  0  0
  -10.2490   -2.6420    0.1800 C   0  0  0  0  0  0  0  0  0  0  0  0
  -11.3800   -3.0650    1.0860 C   0  0  0  0  0  0  0  0  0  0  0  0
  -11.2000   -3.8390    2.3880 C   0  0  0  0  0  0  0  0  0  0  0  0
  -10.9900   -5.0690    2.3420 N   0  0  0  0  0  0  0  0  0  0  0  0
  -12.7310   -2.7290    0.7330 N   0  0  0  0  0  0  0  0  0  0  0  0
  -12.9960   -1.9940   -0.4510 N   0  0  0  0  0  0  0  0  0  0  0  0
  -14.3580   -1.6940   -0.7530 C   0  0  0  0  0  0  0  0  0  0  0  0
  -15.0390   -0.7180   -0.0560 C   0  0  0  0  0  0  0  0  0  0  0  0
  -16.3510   -0.4690   -0.3980 C   0  0  0  0  0  0  0  0  0  0  0  0
  -16.9430   -1.2030   -1.4080 C   0  0  0  0  0  0  0  0  0  0  0  0
  -18.3840   -0.9560   -1.8060 C   0  0  0  0  0  0  0  0  0  0  0  0
  -16.2510   -2.1690   -2.1000 C   0  0  0  0  0  0  0  0  0  0  0  0
  -14.9490   -2.4160   -1.7590 C   0  0  0  0  0  0  0  0  0  0  0  0
  -11.9050   -1.5730   -1.3540 C   0  0  0  0  0  0  0  0  0  0  0  0
  -10.5280   -1.9050   -1.0240 N   0  0  0  0  0  0  0  0  0  0  0  0
   -9.4550   -1.4720   -1.9190 C   0  0  0  0  0  0  0  0  0  0  0  0
   -9.2820   -2.3940   -3.1270 C   0  0  0  0  0  0  0  0  0  0  0  0
   -7.8170   -2.5500   -3.5360 C   0  0  0  0  0  0  0  0  0  0  0  0
   -6.9720   -3.3210   -2.7550 C   0  0  0  0  0  0  0  0  0  0  0  0
   -5.6390   -3.4770   -3.1110 C   0  0  0  0  0  0  0  0  0  0  0  0
   -5.1940   -2.8390   -4.2640 C   0  0  0  0  0  0  0  0  0  0  0  0
   -6.0850   -2.0780   -5.0070 C   0  0  0  0  0  0  0  0  0  0  0  0
   -7.3470   -1.9600   -4.6270 N   0  0  0  0  0  0  0  0  0  0  0  0
  -12.1450   -0.9640   -2.3390 O   0  0  0  0  0  0  0  0  0  0  0  0
  -18.7610   -1.8760   -2.7390 F   0  0  0  0  0  0  0  0  0  0  0  0
  -18.4550    0.3250   -2.2750 F   0  0  0  0  0  0  0  0  0  0  0  0
  -19.1950   -1.1300   -0.7370 F   0  0  0  0  0  0  0  0  0  0  0  0
   -9.7920   -3.7475   -2.8656 C   0  0  0  0  0  0  0  0  0  0  0  0
  -10.0717   -1.8029   -4.3549 C   0  0  0  0  0  0  0  0  0  0  0  0
   -9.2616   -4.7965   -1.8772 S   0  0  0  0  0  0  0  0  0  0  0  0
   -9.7169   -5.0236   -0.4635 C   0  0  0  0  0  0  0  0  0  0  0  0
   -9.3946   -6.4355   -2.7808 C   0  0  0  0  0  0  0  0  0  0  0  0
   -7.7555   -4.5817   -1.6230 O   0  0  0  0  0  0  0  0  0  0  0  0
  1  2  2  0
  2  3  1  0
  2 16  1  0
  3  4  1  0
  3  6  2  0
  4  5  1  0
  6  7  1  0
  7 15  1  0
  7  8  1  0
 11 12  1  0
 12 28  1  0
 12 27  1  0
 12 26  1  0
 15 16  1  0
 15 25  2  0
 16 17  1  0
 17 18  1  0
 18 19  1  0
 18 29  1  0
 18 30  1  0
 29 31  1  0
 31 32  1  0
 31 33  1  0
 31 34  2  0
  8  9  2  0
  9 10  1  0
 10 11  2  0
 11 13  1  0
 13 14  2  0
 14  8  1  0
 19 20  2  0
 20 21  1  0
 21 22  2  0
 22 23  1  0
 23 24  2  0
 24 19  1  0
M  END

$$$$
No_392-gen_results_new/Mpro_new_generate_500/2024-01-19-21-58-56/
     RDKit          3D

 35 38  0  0  0  0  0  0  0  0999 V2000
   -9.1300   -2.9100    0.4520 O   0  0  0  0  0  0  0  0  0  0  0  0
  -10.2490   -2.6420    0.1800 C   0  0  0  0  0  0  0  0  0  0  0  0
  -11.3800   -3.0650    1.0860 C   0  0  0  0  0  0  0  0  0  0  0  0
  -11.2000   -3.8390    2.3880 C   0  0  0  0  0  0  0  0  0  0  0  0
  -10.9900   -5.0690    2.3420 N   0  0  0  0  0  0  0  0  0  0  0  0
  -12.7310   -2.7290    0.7330 N   0  0  0  0  0  0  0  0  0  0  0  0
  -12.9960   -1.9940   -0.4510 N   0  0  0  0  0  0  0  0  0  0  0  0
  -14.3580   -1.6940   -0.7530 C   0  0  0  0  0  0  0  0  0  0  0  0
  -15.0390   -0.7180   -0.0560 C   0  0  0  0  0  0  0  0  0  0  0  0
  -16.3510   -0.4690   -0.3980 C   0  0  0  0  0  0  0  0  0  0  0  0
  -16.9430   -1.2030   -1.4080 C   0  0  0  0  0  0  0  0  0  0  0  0
  -18.3840   -0.9560   -1.8060 C   0  0  0  0  0  0  0  0  0  0  0  0
  -16.2510   -2.1690   -2.1000 C   0  0  0  0  0  0  0  0  0  0  0  0
  -14.9490   -2.4160   -1.7590 C   0  0  0  0  0  0  0  0  0  0  0  0
  -11.9050   -1.5730   -1.3540 C   0  0  0  0  0  0  0  0  0  0  0  0
  -10.5280   -1.9050   -1.0240 N   0  0  0  0  0  0  0  0  0  0  0  0
   -9.4550   -1.4720   -1.9190 C   0  0  0  0  0  0  0  0  0  0  0  0
   -9.2820   -2.3940   -3.1270 C   0  0  0  0  0  0  0  0  0  0  0  0
   -7.8170   -2.5500   -3.5360 C   0  0  0  0  0  0  0  0  0  0  0  0
   -6.9720   -3.3210   -2.7550 C   0  0  0  0  0  0  0  0  0  0  0  0
   -5.6390   -3.4770   -3.1110 C   0  0  0  0  0  0  0  0  0  0  0  0
   -5.1940   -2.8390   -4.2640 C   0  0  0  0  0  0  0  0  0  0  0  0
   -6.0850   -2.0780   -5.0070 C   0  0  0  0  0  0  0  0  0  0  0  0
   -7.3470   -1.9600   -4.6270 N   0  0  0  0  0  0  0  0  0  0  0  0
  -12.1450   -0.9640   -2.3390 O   0  0  0  0  0  0  0  0  0  0  0  0
  -18.7610   -1.8760   -2.7390 F   0  0  0  0  0  0  0  0  0  0  0  0
  -18.4550    0.3250   -2.2750 F   0  0  0  0  0  0  0  0  0  0  0  0
  -19.1950   -1.1300   -0.7370 F   0  0  0  0  0  0  0  0  0  0  0  0
   -9.7920   -3.7475   -2.8656 C   0  0  0  0  0  0  0  0  0  0  0  0
  -10.1387   -2.0206   -4.2903 C   0  0  0  0  0  0  0  0  0  0  0  0
  -10.1257   -4.6809   -3.9732 C   0  0  0  0  0  0  0  0  0  0  0  0
  -10.5661   -3.6103   -4.9231 O   0  0  0  0  0  0  0  0  0  0  0  0
  -10.2762   -1.0673   -5.0293 O   0  0  0  0  0  0  0  0  0  0  0  0
   -8.9685   -4.5966   -2.0572 O   0  0  0  0  0  0  0  0  0  0  0  0
   -8.2643   -5.5756   -2.3540 C   0  0  0  0  0  0  0  0  0  0  0  0
  1  2  2  0
  2  3  1  0
  2 16  1  0
  3  4  1  0
  3  6  2  0
  4  5  1  0
  6  7  1  0
  7 15  1  0
  7  8  1  0
 11 12  1  0
 12 28  1  0
 12 27  1  0
 12 26  1  0
 15 16  1  0
 15 25  2  0
 16 17  1  0
 17 18  1  0
 18 19  1  0
 18 29  1  0
 18 30  1  0
 29 31  2  0
 30 32  1  0
 31 32  1  0
 30 33  2  0
 29 34  1  0
 34 35  1  0
  8  9  2  0
  9 10  1  0
 10 11  2  0
 11 13  1  0
 13 14  2  0
 14  8  1  0
 19 20  2  0
 20 21  1  0
 21 22  2  0
 22 23  1  0
 23 24  2  0
 24 19  1  0
M  END

$$$$
No_393-gen_results_new/Mpro_new_generate_500/2024-01-19-21-58-56/
     RDKit          3D

 35 37  0  0  0  0  0  0  0  0999 V2000
   -9.1300   -2.9100    0.4520 O   0  0  0  0  0  0  0  0  0  0  0  0
  -10.2490   -2.6420    0.1800 C   0  0  0  0  0  0  0  0  0  0  0  0
  -11.3800   -3.0650    1.0860 C   0  0  0  0  0  0  0  0  0  0  0  0
  -11.2000   -3.8390    2.3880 C   0  0  0  0  0  0  0  0  0  0  0  0
  -10.9900   -5.0690    2.3420 N   0  0  0  0  0  0  0  0  0  0  0  0
  -12.7310   -2.7290    0.7330 N   0  0  0  0  0  0  0  0  0  0  0  0
  -12.9960   -1.9940   -0.4510 N   0  0  0  0  0  0  0  0  0  0  0  0
  -14.3580   -1.6940   -0.7530 C   0  0  0  0  0  0  0  0  0  0  0  0
  -15.0390   -0.7180   -0.0560 C   0  0  0  0  0  0  0  0  0  0  0  0
  -16.3510   -0.4690   -0.3980 C   0  0  0  0  0  0  0  0  0  0  0  0
  -16.9430   -1.2030   -1.4080 C   0  0  0  0  0  0  0  0  0  0  0  0
  -18.3840   -0.9560   -1.8060 C   0  0  0  0  0  0  0  0  0  0  0  0
  -16.2510   -2.1690   -2.1000 C   0  0  0  0  0  0  0  0  0  0  0  0
  -14.9490   -2.4160   -1.7590 C   0  0  0  0  0  0  0  0  0  0  0  0
  -11.9050   -1.5730   -1.3540 C   0  0  0  0  0  0  0  0  0  0  0  0
  -10.5280   -1.9050   -1.0240 N   0  0  0  0  0  0  0  0  0  0  0  0
   -9.4550   -1.4720   -1.9190 C   0  0  0  0  0  0  0  0  0  0  0  0
   -9.2820   -2.3940   -3.1270 C   0  0  0  0  0  0  0  0  0  0  0  0
   -7.8170   -2.5500   -3.5360 C   0  0  0  0  0  0  0  0  0  0  0  0
   -6.9720   -3.3210   -2.7550 C   0  0  0  0  0  0  0  0  0  0  0  0
   -5.6390   -3.4770   -3.1110 C   0  0  0  0  0  0  0  0  0  0  0  0
   -5.1940   -2.8390   -4.2640 C   0  0  0  0  0  0  0  0  0  0  0  0
   -6.0850   -2.0780   -5.0070 C   0  0  0  0  0  0  0  0  0  0  0  0
   -7.3470   -1.9600   -4.6270 N   0  0  0  0  0  0  0  0  0  0  0  0
  -12.1450   -0.9640   -2.3390 O   0  0  0  0  0  0  0  0  0  0  0  0
  -18.7610   -1.8760   -2.7390 F   0  0  0  0  0  0  0  0  0  0  0  0
  -18.4550    0.3250   -2.2750 F   0  0  0  0  0  0  0  0  0  0  0  0
  -19.1950   -1.1300   -0.7370 F   0  0  0  0  0  0  0  0  0  0  0  0
  -10.0899   -3.0088   -3.7244 O   0  0  0  0  0  0  0  0  0  0  0  0
  -16.7844   -3.0180   -3.1233 O   0  0  0  0  0  0  0  0  0  0  0  0
  -16.5408   -4.4495   -2.9958 C   0  0  0  0  0  0  0  0  0  0  0  0
  -15.5473   -4.4608   -4.3263 C   0  0  0  0  0  0  0  0  0  0  0  0
  -14.6018   -5.7221   -3.9473 C   0  0  0  0  0  0  0  0  0  0  0  0
  -13.8217   -6.1759   -4.9048 N   0  0  0  0  0  0  0  0  0  0  0  0
  -13.6761   -5.5100   -2.7623 C   0  0  0  0  0  0  0  0  0  0  0  0
  1  2  2  0
  2  3  1  0
  2 16  1  0
  3  4  1  0
  3  6  2  0
  4  5  1  0
  6  7  1  0
  7 15  1  0
  7  8  1  0
 11 12  1  0
 12 28  1  0
 12 27  1  0
 12 26  1  0
 15 16  1  0
 15 25  2  0
 16 17  1  0
 17 18  1  0
 18 19  1  0
 18 29  2  0
 13 30  1  0
 30 31  1  0
 31 32  1  0
 32 33  2  3
 33 34  1  0
 33 35  1  0
  8  9  2  0
  9 10  1  0
 10 11  2  0
 11 13  1  0
 13 14  2  0
 14  8  1  0
 19 20  2  0
 20 21  1  0
 21 22  2  0
 22 23  1  0
 23 24  2  0
 24 19  1  0
M  END

$$$$
No_394-gen_results_new/Mpro_new_generate_500/2024-01-19-21-58-56/
     RDKit          3D

 35 38  0  0  0  0  0  0  0  0999 V2000
   -9.1300   -2.9100    0.4520 O   0  0  0  0  0  0  0  0  0  0  0  0
  -10.2490   -2.6420    0.1800 C   0  0  0  0  0  0  0  0  0  0  0  0
  -11.3800   -3.0650    1.0860 C   0  0  0  0  0  0  0  0  0  0  0  0
  -11.2000   -3.8390    2.3880 C   0  0  0  0  0  0  0  0  0  0  0  0
  -10.9900   -5.0690    2.3420 N   0  0  0  0  0  0  0  0  0  0  0  0
  -12.7310   -2.7290    0.7330 N   0  0  0  0  0  0  0  0  0  0  0  0
  -12.9960   -1.9940   -0.4510 N   0  0  0  0  0  0  0  0  0  0  0  0
  -14.3580   -1.6940   -0.7530 C   0  0  0  0  0  0  0  0  0  0  0  0
  -15.0390   -0.7180   -0.0560 C   0  0  0  0  0  0  0  0  0  0  0  0
  -16.3510   -0.4690   -0.3980 C   0  0  0  0  0  0  0  0  0  0  0  0
  -16.9430   -1.2030   -1.4080 C   0  0  0  0  0  0  0  0  0  0  0  0
  -18.3840   -0.9560   -1.8060 C   0  0  0  0  0  0  0  0  0  0  0  0
  -16.2510   -2.1690   -2.1000 C   0  0  0  0  0  0  0  0  0  0  0  0
  -14.9490   -2.4160   -1.7590 C   0  0  0  0  0  0  0  0  0  0  0  0
  -11.9050   -1.5730   -1.3540 C   0  0  0  0  0  0  0  0  0  0  0  0
  -10.5280   -1.9050   -1.0240 N   0  0  0  0  0  0  0  0  0  0  0  0
   -9.4550   -1.4720   -1.9190 C   0  0  0  0  0  0  0  0  0  0  0  0
   -9.2820   -2.3940   -3.1270 C   0  0  0  0  0  0  0  0  0  0  0  0
   -7.8170   -2.5500   -3.5360 C   0  0  0  0  0  0  0  0  0  0  0  0
   -6.9720   -3.3210   -2.7550 C   0  0  0  0  0  0  0  0  0  0  0  0
   -5.6390   -3.4770   -3.1110 C   0  0  0  0  0  0  0  0  0  0  0  0
   -5.1940   -2.8390   -4.2640 C   0  0  0  0  0  0  0  0  0  0  0  0
   -6.0850   -2.0780   -5.0070 C   0  0  0  0  0  0  0  0  0  0  0  0
   -7.3470   -1.9600   -4.6270 N   0  0  0  0  0  0  0  0  0  0  0  0
  -12.1450   -0.9640   -2.3390 O   0  0  0  0  0  0  0  0  0  0  0  0
  -18.7610   -1.8760   -2.7390 F   0  0  0  0  0  0  0  0  0  0  0  0
  -18.4550    0.3250   -2.2750 F   0  0  0  0  0  0  0  0  0  0  0  0
  -19.1950   -1.1300   -0.7370 F   0  0  0  0  0  0  0  0  0  0  0  0
  -10.0453   -2.0069   -4.3181 C   0  0  0  0  0  0  0  0  0  0  0  0
   -9.7809   -3.8139   -2.5967 C   0  0  0  0  0  0  0  0  0  0  0  0
   -8.8867   -4.8557   -2.6285 C   0  0  0  0  0  0  0  0  0  0  0  0
   -7.4855   -4.3467   -2.2794 O   0  0  0  0  0  0  0  0  0  0  0  0
   -8.8615   -5.5223   -3.6023 O   0  0  0  0  0  0  0  0  0  0  0  0
   -8.3908   -6.8776   -3.3311 C   0  0  0  0  0  0  0  0  0  0  0  0
   -8.5965   -7.5035   -2.2085 C   0  0  0  0  0  0  0  0  0  0  0  0
  1  2  2  0
  2  3  1  0
  2 16  1  0
  3  4  1  0
  3  6  2  0
  4  5  1  0
  6  7  1  0
  7 15  1  0
  7  8  1  0
 11 12  1  0
 12 28  1  0
 12 27  1  0
 12 26  1  0
 15 16  1  0
 15 25  2  0
 16 17  1  0
 17 18  1  0
 18 19  1  0
 18 29  1  0
 18 30  1  0
 30 31  1  0
 20 32  1  0
 31 32  1  0
 31 33  1  0
 33 34  1  0
 34 35  2  0
  8  9  2  0
  9 10  1  0
 10 11  2  0
 11 13  1  0
 13 14  2  0
 14  8  1  0
 19 20  1  0
 20 21  2  0
 21 22  1  0
 22 23  2  0
 23 24  1  0
 24 19  2  0
M  END

$$$$
No_395-gen_results_new/Mpro_new_generate_500/2024-01-19-21-58-56/
     RDKit          3D

 35 38  0  0  0  0  0  0  0  0999 V2000
   -9.1300   -2.9100    0.4520 O   0  0  0  0  0  0  0  0  0  0  0  0
  -10.2490   -2.6420    0.1800 C   0  0  0  0  0  0  0  0  0  0  0  0
  -11.3800   -3.0650    1.0860 C   0  0  0  0  0  0  0  0  0  0  0  0
  -11.2000   -3.8390    2.3880 C   0  0  0  0  0  0  0  0  0  0  0  0
  -10.9900   -5.0690    2.3420 N   0  0  0  0  0  0  0  0  0  0  0  0
  -12.7310   -2.7290    0.7330 N   0  0  0  0  0  0  0  0  0  0  0  0
  -12.9960   -1.9940   -0.4510 N   0  0  0  0  0  0  0  0  0  0  0  0
  -14.3580   -1.6940   -0.7530 C   0  0  0  0  0  0  0  0  0  0  0  0
  -15.0390   -0.7180   -0.0560 C   0  0  0  0  0  0  0  0  0  0  0  0
  -16.3510   -0.4690   -0.3980 C   0  0  0  0  0  0  0  0  0  0  0  0
  -16.9430   -1.2030   -1.4080 C   0  0  0  0  0  0  0  0  0  0  0  0
  -18.3840   -0.9560   -1.8060 C   0  0  0  0  0  0  0  0  0  0  0  0
  -16.2510   -2.1690   -2.1000 C   0  0  0  0  0  0  0  0  0  0  0  0
  -14.9490   -2.4160   -1.7590 C   0  0  0  0  0  0  0  0  0  0  0  0
  -11.9050   -1.5730   -1.3540 C   0  0  0  0  0  0  0  0  0  0  0  0
  -10.5280   -1.9050   -1.0240 N   0  0  0  0  0  0  0  0  0  0  0  0
   -9.4550   -1.4720   -1.9190 C   0  0  0  0  0  0  0  0  0  0  0  0
   -9.2820   -2.3940   -3.1270 C   0  0  0  0  0  0  0  0  0  0  0  0
   -7.8170   -2.5500   -3.5360 C   0  0  0  0  0  0  0  0  0  0  0  0
   -6.9720   -3.3210   -2.7550 C   0  0  0  0  0  0  0  0  0  0  0  0
   -5.6390   -3.4770   -3.1110 C   0  0  0  0  0  0  0  0  0  0  0  0
   -5.1940   -2.8390   -4.2640 C   0  0  0  0  0  0  0  0  0  0  0  0
   -6.0850   -2.0780   -5.0070 C   0  0  0  0  0  0  0  0  0  0  0  0
   -7.3470   -1.9600   -4.6270 N   0  0  0  0  0  0  0  0  0  0  0  0
  -12.1450   -0.9640   -2.3390 O   0  0  0  0  0  0  0  0  0  0  0  0
  -18.7610   -1.8760   -2.7390 F   0  0  0  0  0  0  0  0  0  0  0  0
  -18.4550    0.3250   -2.2750 F   0  0  0  0  0  0  0  0  0  0  0  0
  -19.1950   -1.1300   -0.7370 F   0  0  0  0  0  0  0  0  0  0  0  0
  -10.0453   -2.0069   -4.3181 C   0  0  0  0  0  0  0  0  0  0  0  0
   -9.8476   -3.8948   -2.8015 C   0  0  0  0  0  0  0  0  0  0  0  0
  -10.0302   -4.6229   -3.7804 O   0  0  0  0  0  0  0  0  0  0  0  0
   -8.9563   -4.7081   -1.8635 C   0  0  0  0  0  0  0  0  0  0  0  0
   -7.4581   -4.2682   -1.9919 C   0  0  0  0  0  0  0  0  0  0  0  0
   -6.7285   -5.0595   -1.1692 O   0  0  0  0  0  0  0  0  0  0  0  0
   -7.0877   -6.3753   -0.8928 C   0  0  0  0  0  0  0  0  0  0  0  0
  1  2  2  0
  2  3  1  0
  2 16  1  0
  3  4  1  0
  3  6  2  0
  4  5  1  0
  6  7  1  0
  7 15  1  0
  7  8  1  0
 11 12  1  0
 12 28  1  0
 12 27  1  0
 12 26  1  0
 15 16  1  0
 15 25  2  0
 16 17  1  0
 17 18  1  0
 18 19  1  0
 18 29  1  0
 18 30  1  0
 30 31  2  0
 30 32  1  0
 20 33  1  0
 33 34  1  0
 34 35  1  0
 33 32  1  0
  8  9  2  0
  9 10  1  0
 10 11  2  0
 11 13  1  0
 13 14  2  0
 14  8  1  0
 19 24  1  0
 24 23  2  0
 23 22  1  0
 22 21  2  0
 21 20  1  0
 20 19  2  0
M  END

$$$$
No_396-gen_results_new/Mpro_new_generate_500/2024-01-19-21-58-56/
     RDKit          3D

 35 38  0  0  0  0  0  0  0  0999 V2000
   -9.1300   -2.9100    0.4520 O   0  0  0  0  0  0  0  0  0  0  0  0
  -10.2490   -2.6420    0.1800 C   0  0  0  0  0  0  0  0  0  0  0  0
  -11.3800   -3.0650    1.0860 C   0  0  0  0  0  0  0  0  0  0  0  0
  -11.2000   -3.8390    2.3880 C   0  0  0  0  0  0  0  0  0  0  0  0
  -10.9900   -5.0690    2.3420 N   0  0  0  0  0  0  0  0  0  0  0  0
  -12.7310   -2.7290    0.7330 N   0  0  0  0  0  0  0  0  0  0  0  0
  -12.9960   -1.9940   -0.4510 N   0  0  0  0  0  0  0  0  0  0  0  0
  -14.3580   -1.6940   -0.7530 C   0  0  0  0  0  0  0  0  0  0  0  0
  -15.0390   -0.7180   -0.0560 C   0  0  0  0  0  0  0  0  0  0  0  0
  -16.3510   -0.4690   -0.3980 C   0  0  0  0  0  0  0  0  0  0  0  0
  -16.9430   -1.2030   -1.4080 C   0  0  0  0  0  0  0  0  0  0  0  0
  -18.3840   -0.9560   -1.8060 C   0  0  0  0  0  0  0  0  0  0  0  0
  -16.2510   -2.1690   -2.1000 C   0  0  0  0  0  0  0  0  0  0  0  0
  -14.9490   -2.4160   -1.7590 C   0  0  0  0  0  0  0  0  0  0  0  0
  -11.9050   -1.5730   -1.3540 C   0  0  0  0  0  0  0  0  0  0  0  0
  -10.5280   -1.9050   -1.0240 N   0  0  0  0  0  0  0  0  0  0  0  0
   -9.4550   -1.4720   -1.9190 C   0  0  0  0  0  0  0  0  0  0  0  0
   -9.2820   -2.3940   -3.1270 C   0  0  0  0  0  0  0  0  0  0  0  0
   -7.8170   -2.5500   -3.5360 C   0  0  0  0  0  0  0  0  0  0  0  0
   -6.9720   -3.3210   -2.7550 C   0  0  0  0  0  0  0  0  0  0  0  0
   -5.6390   -3.4770   -3.1110 C   0  0  0  0  0  0  0  0  0  0  0  0
   -5.1940   -2.8390   -4.2640 C   0  0  0  0  0  0  0  0  0  0  0  0
   -6.0850   -2.0780   -5.0070 C   0  0  0  0  0  0  0  0  0  0  0  0
   -7.3470   -1.9600   -4.6270 N   0  0  0  0  0  0  0  0  0  0  0  0
  -12.1450   -0.9640   -2.3390 O   0  0  0  0  0  0  0  0  0  0  0  0
  -18.7610   -1.8760   -2.7390 F   0  0  0  0  0  0  0  0  0  0  0  0
  -18.4550    0.3250   -2.2750 F   0  0  0  0  0  0  0  0  0  0  0  0
  -19.1950   -1.1300   -0.7370 F   0  0  0  0  0  0  0  0  0  0  0  0
   -9.7920   -3.7475   -2.8656 C   0  0  0  0  0  0  0  0  0  0  0  0
  -10.0717   -1.8029   -4.3549 C   0  0  0  0  0  0  0  0  0  0  0  0
  -10.0419   -4.6597   -4.1091 C   0  0  0  0  0  0  0  0  0  0  0  0
  -10.4950   -3.9035   -5.3363 C   0  0  0  0  0  0  0  0  0  0  0  0
  -11.1206   -4.8145   -6.4238 C   0  0  0  0  0  0  0  0  0  0  0  0
  -10.6379   -2.6276   -5.3169 O   0  0  0  0  0  0  0  0  0  0  0  0
  -10.2164   -5.0985   -7.3310 C   0  0  0  0  0  0  0  0  0  0  0  0
  1  2  2  0
  2  3  1  0
  2 16  1  0
  3  4  1  0
  3  6  2  0
  4  5  1  0
  6  7  1  0
  7 15  1  0
  7  8  1  0
 11 12  1  0
 12 28  1  0
 12 27  1  0
 12 26  1  0
 15 16  1  0
 15 25  2  0
 16 17  1  0
 17 18  1  0
 18 19  1  0
 18 29  1  0
 18 30  1  0
 29 31  2  0
 31 32  1  0
 32 33  1  0
 30 34  1  0
 32 34  1  0
 33 35  1  0
  8  9  2  0
  9 10  1  0
 10 11  2  0
 11 13  1  0
 13 14  2  0
 14  8  1  0
 19 20  2  0
 20 21  1  0
 21 22  2  0
 22 23  1  0
 23 24  2  0
 24 19  1  0
M  END

$$$$
No_397-gen_results_new/Mpro_new_generate_500/2024-01-19-21-58-56/
     RDKit          3D

 35 38  0  0  0  0  0  0  0  0999 V2000
   -9.1300   -2.9100    0.4520 O   0  0  0  0  0  0  0  0  0  0  0  0
  -10.2490   -2.6420    0.1800 C   0  0  0  0  0  0  0  0  0  0  0  0
  -11.3800   -3.0650    1.0860 C   0  0  0  0  0  0  0  0  0  0  0  0
  -11.2000   -3.8390    2.3880 C   0  0  0  0  0  0  0  0  0  0  0  0
  -10.9900   -5.0690    2.3420 N   0  0  0  0  0  0  0  0  0  0  0  0
  -12.7310   -2.7290    0.7330 N   0  0  0  0  0  0  0  0  0  0  0  0
  -12.9960   -1.9940   -0.4510 N   0  0  0  0  0  0  0  0  0  0  0  0
  -14.3580   -1.6940   -0.7530 C   0  0  0  0  0  0  0  0  0  0  0  0
  -15.0390   -0.7180   -0.0560 C   0  0  0  0  0  0  0  0  0  0  0  0
  -16.3510   -0.4690   -0.3980 C   0  0  0  0  0  0  0  0  0  0  0  0
  -16.9430   -1.2030   -1.4080 C   0  0  0  0  0  0  0  0  0  0  0  0
  -18.3840   -0.9560   -1.8060 C   0  0  0  0  0  0  0  0  0  0  0  0
  -16.2510   -2.1690   -2.1000 C   0  0  0  0  0  0  0  0  0  0  0  0
  -14.9490   -2.4160   -1.7590 C   0  0  0  0  0  0  0  0  0  0  0  0
  -11.9050   -1.5730   -1.3540 C   0  0  0  0  0  0  0  0  0  0  0  0
  -10.5280   -1.9050   -1.0240 N   0  0  0  0  0  0  0  0  0  0  0  0
   -9.4550   -1.4720   -1.9190 C   0  0  0  0  0  0  0  0  0  0  0  0
   -9.2820   -2.3940   -3.1270 C   0  0  0  0  0  0  0  0  0  0  0  0
   -7.8170   -2.5500   -3.5360 C   0  0  0  0  0  0  0  0  0  0  0  0
   -6.9720   -3.3210   -2.7550 C   0  0  0  0  0  0  0  0  0  0  0  0
   -5.6390   -3.4770   -3.1110 C   0  0  0  0  0  0  0  0  0  0  0  0
   -5.1940   -2.8390   -4.2640 C   0  0  0  0  0  0  0  0  0  0  0  0
   -6.0850   -2.0780   -5.0070 C   0  0  0  0  0  0  0  0  0  0  0  0
   -7.3470   -1.9600   -4.6270 N   0  0  0  0  0  0  0  0  0  0  0  0
  -12.1450   -0.9640   -2.3390 O   0  0  0  0  0  0  0  0  0  0  0  0
  -18.7610   -1.8760   -2.7390 F   0  0  0  0  0  0  0  0  0  0  0  0
  -18.4550    0.3250   -2.2750 F   0  0  0  0  0  0  0  0  0  0  0  0
  -19.1950   -1.1300   -0.7370 F   0  0  0  0  0  0  0  0  0  0  0  0
  -10.0453   -2.0069   -4.3181 C   0  0  0  0  0  0  0  0  0  0  0  0
   -9.8480   -3.6882   -2.9621 O   0  0  0  0  0  0  0  0  0  0  0  0
  -10.1304   -4.5054   -4.0542 C   0  0  0  0  0  0  0  0  0  0  0  0
  -10.8708   -4.0152   -4.8747 C   0  0  0  0  0  0  0  0  0  0  0  0
  -11.0570   -4.9294   -6.0703 O   0  0  0  0  0  0  0  0  0  0  0  0
  -10.8708   -2.6472   -5.2636 C   0  0  0  0  0  0  0  0  0  0  0  0
  -12.3437   -5.2625   -6.3577 C   0  0  0  0  0  0  0  0  0  0  0  0
  1  2  2  0
  2  3  1  0
  2 16  1  0
  3  4  1  0
  3  6  2  0
  4  5  1  0
  6  7  1  0
  7 15  1  0
  7  8  1  0
 11 12  1  0
 12 28  1  0
 12 27  1  0
 12 26  1  0
 15 16  1  0
 15 25  2  0
 16 17  1  0
 17 18  1  0
 18 19  1  0
 18 29  1  0
 18 30  1  0
 30 31  1  0
 31 32  1  0
 32 33  1  0
 29 34  1  0
 32 34  1  0
 33 35  1  0
  8  9  2  0
  9 10  1  0
 10 11  2  0
 11 13  1  0
 13 14  2  0
 14  8  1  0
 19 20  2  0
 20 21  1  0
 21 22  2  0
 22 23  1  0
 23 24  2  0
 24 19  1  0
M  END

$$$$
No_398-gen_results_new/Mpro_new_generate_500/2024-01-19-21-58-56/
     RDKit          3D

 33 36  0  0  0  0  0  0  0  0999 V2000
   -9.1300   -2.9100    0.4520 O   0  0  0  0  0  0  0  0  0  0  0  0
  -10.2490   -2.6420    0.1800 C   0  0  0  0  0  0  0  0  0  0  0  0
  -11.3800   -3.0650    1.0860 C   0  0  0  0  0  0  0  0  0  0  0  0
  -11.2000   -3.8390    2.3880 C   0  0  0  0  0  0  0  0  0  0  0  0
  -10.9900   -5.0690    2.3420 N   0  0  0  0  0  0  0  0  0  0  0  0
  -12.7310   -2.7290    0.7330 N   0  0  0  0  0  0  0  0  0  0  0  0
  -12.9960   -1.9940   -0.4510 N   0  0  0  0  0  0  0  0  0  0  0  0
  -14.3580   -1.6940   -0.7530 C   0  0  0  0  0  0  0  0  0  0  0  0
  -15.0390   -0.7180   -0.0560 C   0  0  0  0  0  0  0  0  0  0  0  0
  -16.3510   -0.4690   -0.3980 C   0  0  0  0  0  0  0  0  0  0  0  0
  -16.9430   -1.2030   -1.4080 C   0  0  0  0  0  0  0  0  0  0  0  0
  -18.3840   -0.9560   -1.8060 C   0  0  0  0  0  0  0  0  0  0  0  0
  -16.2510   -2.1690   -2.1000 C   0  0  0  0  0  0  0  0  0  0  0  0
  -14.9490   -2.4160   -1.7590 C   0  0  0  0  0  0  0  0  0  0  0  0
  -11.9050   -1.5730   -1.3540 C   0  0  0  0  0  0  0  0  0  0  0  0
  -10.5280   -1.9050   -1.0240 N   0  0  0  0  0  0  0  0  0  0  0  0
   -9.4550   -1.4720   -1.9190 C   0  0  0  0  0  0  0  0  0  0  0  0
   -9.2820   -2.3940   -3.1270 C   0  0  0  0  0  0  0  0  0  0  0  0
   -7.8170   -2.5500   -3.5360 C   0  0  0  0  0  0  0  0  0  0  0  0
   -6.9720   -3.3210   -2.7550 C   0  0  0  0  0  0  0  0  0  0  0  0
   -5.6390   -3.4770   -3.1110 C   0  0  0  0  0  0  0  0  0  0  0  0
   -5.1940   -2.8390   -4.2640 C   0  0  0  0  0  0  0  0  0  0  0  0
   -6.0850   -2.0780   -5.0070 C   0  0  0  0  0  0  0  0  0  0  0  0
   -7.3470   -1.9600   -4.6270 N   0  0  0  0  0  0  0  0  0  0  0  0
  -12.1450   -0.9640   -2.3390 O   0  0  0  0  0  0  0  0  0  0  0  0
  -18.7610   -1.8760   -2.7390 F   0  0  0  0  0  0  0  0  0  0  0  0
  -18.4550    0.3250   -2.2750 F   0  0  0  0  0  0  0  0  0  0  0  0
  -19.1950   -1.1300   -0.7370 F   0  0  0  0  0  0  0  0  0  0  0  0
   -9.7920   -3.7475   -2.8656 C   0  0  0  0  0  0  0  0  0  0  0  0
  -10.1112   -2.1676   -4.1288 O   0  0  0  0  0  0  0  0  0  0  0  0
  -10.9497   -3.1465   -4.8669 C   0  0  0  0  0  0  0  0  0  0  0  0
  -10.7775   -4.2408   -4.0649 O   0  0  0  0  0  0  0  0  0  0  0  0
   -9.5601   -4.6441   -2.0828 O   0  0  0  0  0  0  0  0  0  0  0  0
  1  2  2  0
  2  3  1  0
  2 16  1  0
  3  4  1  0
  3  6  2  0
  4  5  1  0
  6  7  1  0
  7 15  1  0
  7  8  1  0
 11 12  1  0
 12 28  1  0
 12 27  1  0
 12 26  1  0
 15 16  1  0
 15 25  2  0
 16 17  1  0
 17 18  1  0
 18 19  1  0
 18 29  1  0
 18 30  1  0
 30 31  1  0
 29 32  1  0
 31 32  1  0
 29 33  2  0
  8  9  2  0
  9 10  1  0
 10 11  2  0
 11 13  1  0
 13 14  2  0
 14  8  1  0
 19 20  2  0
 20 21  1  0
 21 22  2  0
 22 23  1  0
 23 24  2  0
 24 19  1  0
M  END

$$$$
No_399-gen_results_new/Mpro_new_generate_500/2024-01-19-21-58-56/
     RDKit          3D

 35 37  0  0  0  0  0  0  0  0999 V2000
   -9.1300   -2.9100    0.4520 O   0  0  0  0  0  0  0  0  0  0  0  0
  -10.2490   -2.6420    0.1800 C   0  0  0  0  0  0  0  0  0  0  0  0
  -11.3800   -3.0650    1.0860 C   0  0  0  0  0  0  0  0  0  0  0  0
  -11.2000   -3.8390    2.3880 C   0  0  0  0  0  0  0  0  0  0  0  0
  -10.9900   -5.0690    2.3420 N   0  0  0  0  0  0  0  0  0  0  0  0
  -12.7310   -2.7290    0.7330 N   0  0  0  0  0  0  0  0  0  0  0  0
  -12.9960   -1.9940   -0.4510 N   0  0  0  0  0  0  0  0  0  0  0  0
  -14.3580   -1.6940   -0.7530 C   0  0  0  0  0  0  0  0  0  0  0  0
  -15.0390   -0.7180   -0.0560 C   0  0  0  0  0  0  0  0  0  0  0  0
  -16.3510   -0.4690   -0.3980 C   0  0  0  0  0  0  0  0  0  0  0  0
  -16.9430   -1.2030   -1.4080 C   0  0  0  0  0  0  0  0  0  0  0  0
  -18.3840   -0.9560   -1.8060 C   0  0  0  0  0  0  0  0  0  0  0  0
  -16.2510   -2.1690   -2.1000 C   0  0  0  0  0  0  0  0  0  0  0  0
  -14.9490   -2.4160   -1.7590 C   0  0  0  0  0  0  0  0  0  0  0  0
  -11.9050   -1.5730   -1.3540 C   0  0  0  0  0  0  0  0  0  0  0  0
  -10.5280   -1.9050   -1.0240 N   0  0  0  0  0  0  0  0  0  0  0  0
   -9.4550   -1.4720   -1.9190 C   0  0  0  0  0  0  0  0  0  0  0  0
   -9.2820   -2.3940   -3.1270 C   0  0  0  0  0  0  0  0  0  0  0  0
   -7.8170   -2.5500   -3.5360 C   0  0  0  0  0  0  0  0  0  0  0  0
   -6.9720   -3.3210   -2.7550 C   0  0  0  0  0  0  0  0  0  0  0  0
   -5.6390   -3.4770   -3.1110 C   0  0  0  0  0  0  0  0  0  0  0  0
   -5.1940   -2.8390   -4.2640 C   0  0  0  0  0  0  0  0  0  0  0  0
   -6.0850   -2.0780   -5.0070 C   0  0  0  0  0  0  0  0  0  0  0  0
   -7.3470   -1.9600   -4.6270 N   0  0  0  0  0  0  0  0  0  0  0  0
  -12.1450   -0.9640   -2.3390 O   0  0  0  0  0  0  0  0  0  0  0  0
  -18.7610   -1.8760   -2.7390 F   0  0  0  0  0  0  0  0  0  0  0  0
  -18.4550    0.3250   -2.2750 F   0  0  0  0  0  0  0  0  0  0  0  0
  -19.1950   -1.1300   -0.7370 F   0  0  0  0  0  0  0  0  0  0  0  0
  -10.1467   -3.0903   -3.8357 C   0  0  0  0  0  0  0  0  0  0  0  0
  -10.1748   -2.6832   -3.5186 O   0  0  0  0  0  0  0  0  0  0  0  0
  -10.7471   -2.9982   -4.5745 C   0  0  0  0  0  0  0  0  0  0  0  0
  -10.5503   -3.6142   -3.7225 C   0  0  0  0  0  0  0  0  0  0  0  0
  -11.7617   -4.5592   -3.6329 C   0  0  0  0  0  0  0  0  0  0  0  0
   -9.0320   -1.1872   -3.4388 C   0  0  0  0  0  0  0  0  0  0  0  0
   -8.1978   -0.1303   -2.7874 C   0  0  0  0  0  0  0  0  0  0  0  0
  1  2  2  0
  2  3  1  0
  2 16  1  0
  3  4  1  0
  3  6  2  0
  4  5  1  0
  6  7  1  0
  7 15  1  0
  7  8  1  0
 11 12  1  0
 12 28  1  0
 12 27  1  0
 12 26  1  0
 15 16  1  0
 15 25  2  0
 16 17  1  0
 17 18  1  0
 18 19  1  0
 18 29  1  0
 29 30  1  0
 29 31  1  0
 30 32  1  0
 32 33  2  0
 18 34  1  0
 34 35  1  0
  8  9  2  0
  9 10  1  0
 10 11  2  0
 11 13  1  0
 13 14  2  0
 14  8  1  0
 19 20  2  0
 20 21  1  0
 21 22  2  0
 22 23  1  0
 23 24  2  0
 24 19  1  0
M  END

$$$$
No_400-gen_results_new/Mpro_new_generate_500/2024-01-19-21-58-56/
     RDKit          3D

 32 34  0  0  0  0  0  0  0  0999 V2000
   -9.1300   -2.9100    0.4520 O   0  0  0  0  0  0  0  0  0  0  0  0
  -10.2490   -2.6420    0.1800 C   0  0  0  0  0  0  0  0  0  0  0  0
  -11.3800   -3.0650    1.0860 C   0  0  0  0  0  0  0  0  0  0  0  0
  -11.2000   -3.8390    2.3880 C   0  0  0  0  0  0  0  0  0  0  0  0
  -10.9900   -5.0690    2.3420 N   0  0  0  0  0  0  0  0  0  0  0  0
  -12.7310   -2.7290    0.7330 N   0  0  0  0  0  0  0  0  0  0  0  0
  -12.9960   -1.9940   -0.4510 N   0  0  0  0  0  0  0  0  0  0  0  0
  -14.3580   -1.6940   -0.7530 C   0  0  0  0  0  0  0  0  0  0  0  0
  -15.0390   -0.7180   -0.0560 C   0  0  0  0  0  0  0  0  0  0  0  0
  -16.3510   -0.4690   -0.3980 C   0  0  0  0  0  0  0  0  0  0  0  0
  -16.9430   -1.2030   -1.4080 C   0  0  0  0  0  0  0  0  0  0  0  0
  -18.3840   -0.9560   -1.8060 C   0  0  0  0  0  0  0  0  0  0  0  0
  -16.2510   -2.1690   -2.1000 C   0  0  0  0  0  0  0  0  0  0  0  0
  -14.9490   -2.4160   -1.7590 C   0  0  0  0  0  0  0  0  0  0  0  0
  -11.9050   -1.5730   -1.3540 C   0  0  0  0  0  0  0  0  0  0  0  0
  -10.5280   -1.9050   -1.0240 N   0  0  0  0  0  0  0  0  0  0  0  0
   -9.4550   -1.4720   -1.9190 C   0  0  0  0  0  0  0  0  0  0  0  0
   -9.2820   -2.3940   -3.1270 C   0  0  0  0  0  0  0  0  0  0  0  0
   -7.8170   -2.5500   -3.5360 C   0  0  0  0  0  0  0  0  0  0  0  0
   -6.9720   -3.3210   -2.7550 C   0  0  0  0  0  0  0  0  0  0  0  0
   -5.6390   -3.4770   -3.1110 C   0  0  0  0  0  0  0  0  0  0  0  0
   -5.1940   -2.8390   -4.2640 C   0  0  0  0  0  0  0  0  0  0  0  0
   -6.0850   -2.0780   -5.0070 C   0  0  0  0  0  0  0  0  0  0  0  0
   -7.3470   -1.9600   -4.6270 N   0  0  0  0  0  0  0  0  0  0  0  0
  -12.1450   -0.9640   -2.3390 O   0  0  0  0  0  0  0  0  0  0  0  0
  -18.7610   -1.8760   -2.7390 F   0  0  0  0  0  0  0  0  0  0  0  0
  -18.4550    0.3250   -2.2750 F   0  0  0  0  0  0  0  0  0  0  0  0
  -19.1950   -1.1300   -0.7370 F   0  0  0  0  0  0  0  0  0  0  0  0
   -9.7920   -3.7475   -2.8656 C   0  0  0  0  0  0  0  0  0  0  0  0
  -10.1387   -2.0206   -4.2903 C   0  0  0  0  0  0  0  0  0  0  0  0
   -9.2058   -4.4450   -1.8012 S   0  0  0  0  0  0  0  0  0  0  0  0
   -7.9961   -5.0823   -2.4697 O   0  0  0  0  0  0  0  0  0  0  0  0
  1  2  2  0
  2  3  1  0
  2 16  1  0
  3  4  1  0
  3  6  2  0
  4  5  1  0
  6  7  1  0
  7 15  1  0
  7  8  1  0
 11 12  1  0
 12 28  1  0
 12 27  1  0
 12 26  1  0
 15 16  1  0
 15 25  2  0
 16 17  1  0
 17 18  1  0
 18 19  1  0
 18 29  1  0
 18 30  1  0
 29 31  1  0
 31 32  2  0
  8  9  2  0
  9 10  1  0
 10 11  2  0
 11 13  1  0
 13 14  2  0
 14  8  1  0
 19 20  2  0
 20 21  1  0
 21 22  2  0
 22 23  1  0
 23 24  2  0
 24 19  1  0
M  END

$$$$
No_401-gen_results_new/Mpro_new_generate_500/2024-01-19-21-58-56/
     RDKit          3D

 32 34  0  0  0  0  0  0  0  0999 V2000
   -9.1300   -2.9100    0.4520 O   0  0  0  0  0  0  0  0  0  0  0  0
  -10.2490   -2.6420    0.1800 C   0  0  0  0  0  0  0  0  0  0  0  0
  -11.3800   -3.0650    1.0860 C   0  0  0  0  0  0  0  0  0  0  0  0
  -11.2000   -3.8390    2.3880 C   0  0  0  0  0  0  0  0  0  0  0  0
  -10.9900   -5.0690    2.3420 N   0  0  0  0  0  0  0  0  0  0  0  0
  -12.7310   -2.7290    0.7330 N   0  0  0  0  0  0  0  0  0  0  0  0
  -12.9960   -1.9940   -0.4510 N   0  0  0  0  0  0  0  0  0  0  0  0
  -14.3580   -1.6940   -0.7530 C   0  0  0  0  0  0  0  0  0  0  0  0
  -15.0390   -0.7180   -0.0560 C   0  0  0  0  0  0  0  0  0  0  0  0
  -16.3510   -0.4690   -0.3980 C   0  0  0  0  0  0  0  0  0  0  0  0
  -16.9430   -1.2030   -1.4080 C   0  0  0  0  0  0  0  0  0  0  0  0
  -18.3840   -0.9560   -1.8060 C   0  0  0  0  0  0  0  0  0  0  0  0
  -16.2510   -2.1690   -2.1000 C   0  0  0  0  0  0  0  0  0  0  0  0
  -14.9490   -2.4160   -1.7590 C   0  0  0  0  0  0  0  0  0  0  0  0
  -11.9050   -1.5730   -1.3540 C   0  0  0  0  0  0  0  0  0  0  0  0
  -10.5280   -1.9050   -1.0240 N   0  0  0  0  0  0  0  0  0  0  0  0
   -9.4550   -1.4720   -1.9190 C   0  0  0  0  0  0  0  0  0  0  0  0
   -9.2820   -2.3940   -3.1270 C   0  0  0  0  0  0  0  0  0  0  0  0
   -7.8170   -2.5500   -3.5360 C   0  0  0  0  0  0  0  0  0  0  0  0
   -6.9720   -3.3210   -2.7550 C   0  0  0  0  0  0  0  0  0  0  0  0
   -5.6390   -3.4770   -3.1110 C   0  0  0  0  0  0  0  0  0  0  0  0
   -5.1940   -2.8390   -4.2640 C   0  0  0  0  0  0  0  0  0  0  0  0
   -6.0850   -2.0780   -5.0070 C   0  0  0  0  0  0  0  0  0  0  0  0
   -7.3470   -1.9600   -4.6270 N   0  0  0  0  0  0  0  0  0  0  0  0
  -12.1450   -0.9640   -2.3390 O   0  0  0  0  0  0  0  0  0  0  0  0
  -18.7610   -1.8760   -2.7390 F   0  0  0  0  0  0  0  0  0  0  0  0
  -18.4550    0.3250   -2.2750 F   0  0  0  0  0  0  0  0  0  0  0  0
  -19.1950   -1.1300   -0.7370 F   0  0  0  0  0  0  0  0  0  0  0  0
  -10.1467   -3.0903   -3.8357 C   0  0  0  0  0  0  0  0  0  0  0  0
  -10.1681   -2.5855   -3.6007 C   0  0  0  0  0  0  0  0  0  0  0  0
  -11.3090   -2.7206   -3.3293 F   0  0  0  0  0  0  0  0  0  0  0  0
  -10.4205   -1.5621   -4.8970 C   0  0  0  0  0  0  0  0  0  0  0  0
  1  2  2  0
  2  3  1  0
  2 16  1  0
  3  4  1  0
  3  6  2  0
  4  5  1  0
  6  7  1  0
  7 15  1  0
  7  8  1  0
 11 12  1  0
 12 28  1  0
 12 27  1  0
 12 26  1  0
 15 16  1  0
 15 25  2  0
 16 17  1  0
 17 18  1  0
 18 19  1  0
 18 29  1  0
 29 30  1  0
 30 31  1  0
 30 32  1  0
  8  9  2  0
  9 10  1  0
 10 11  2  0
 11 13  1  0
 13 14  2  0
 14  8  1  0
 19 20  2  0
 20 21  1  0
 21 22  2  0
 22 23  1  0
 23 24  2  0
 24 19  1  0
M  END

$$$$
No_402-gen_results_new/Mpro_new_generate_500/2024-01-19-21-58-56/
     RDKit          3D

 35 38  0  0  0  0  0  0  0  0999 V2000
   -9.1300   -2.9100    0.4520 O   0  0  0  0  0  0  0  0  0  0  0  0
  -10.2490   -2.6420    0.1800 C   0  0  0  0  0  0  0  0  0  0  0  0
  -11.3800   -3.0650    1.0860 C   0  0  0  0  0  0  0  0  0  0  0  0
  -11.2000   -3.8390    2.3880 C   0  0  0  0  0  0  0  0  0  0  0  0
  -10.9900   -5.0690    2.3420 N   0  0  0  0  0  0  0  0  0  0  0  0
  -12.7310   -2.7290    0.7330 N   0  0  0  0  0  0  0  0  0  0  0  0
  -12.9960   -1.9940   -0.4510 N   0  0  0  0  0  0  0  0  0  0  0  0
  -14.3580   -1.6940   -0.7530 C   0  0  0  0  0  0  0  0  0  0  0  0
  -15.0390   -0.7180   -0.0560 C   0  0  0  0  0  0  0  0  0  0  0  0
  -16.3510   -0.4690   -0.3980 C   0  0  0  0  0  0  0  0  0  0  0  0
  -16.9430   -1.2030   -1.4080 C   0  0  0  0  0  0  0  0  0  0  0  0
  -18.3840   -0.9560   -1.8060 C   0  0  0  0  0  0  0  0  0  0  0  0
  -16.2510   -2.1690   -2.1000 C   0  0  0  0  0  0  0  0  0  0  0  0
  -14.9490   -2.4160   -1.7590 C   0  0  0  0  0  0  0  0  0  0  0  0
  -11.9050   -1.5730   -1.3540 C   0  0  0  0  0  0  0  0  0  0  0  0
  -10.5280   -1.9050   -1.0240 N   0  0  0  0  0  0  0  0  0  0  0  0
   -9.4550   -1.4720   -1.9190 C   0  0  0  0  0  0  0  0  0  0  0  0
   -9.2820   -2.3940   -3.1270 C   0  0  0  0  0  0  0  0  0  0  0  0
   -7.8170   -2.5500   -3.5360 C   0  0  0  0  0  0  0  0  0  0  0  0
   -6.9720   -3.3210   -2.7550 C   0  0  0  0  0  0  0  0  0  0  0  0
   -5.6390   -3.4770   -3.1110 C   0  0  0  0  0  0  0  0  0  0  0  0
   -5.1940   -2.8390   -4.2640 C   0  0  0  0  0  0  0  0  0  0  0  0
   -6.0850   -2.0780   -5.0070 C   0  0  0  0  0  0  0  0  0  0  0  0
   -7.3470   -1.9600   -4.6270 N   0  0  0  0  0  0  0  0  0  0  0  0
  -12.1450   -0.9640   -2.3390 O   0  0  0  0  0  0  0  0  0  0  0  0
  -18.7610   -1.8760   -2.7390 F   0  0  0  0  0  0  0  0  0  0  0  0
  -18.4550    0.3250   -2.2750 F   0  0  0  0  0  0  0  0  0  0  0  0
  -19.1950   -1.1300   -0.7370 F   0  0  0  0  0  0  0  0  0  0  0  0
  -10.0453   -2.0069   -4.3181 C   0  0  0  0  0  0  0  0  0  0  0  0
   -9.8476   -3.8948   -2.8015 C   0  0  0  0  0  0  0  0  0  0  0  0
  -10.9871   -4.2370   -3.4678 C   0  0  0  0  0  0  0  0  0  0  0  0
  -11.1005   -3.0106   -4.3397 O   0  0  0  0  0  0  0  0  0  0  0  0
  -12.0218   -4.9670   -3.5673 O   0  0  0  0  0  0  0  0  0  0  0  0
  -10.2694   -0.8407   -4.5614 C   0  0  0  0  0  0  0  0  0  0  0  0
   -9.3411   -4.7047   -2.0577 O   0  0  0  0  0  0  0  0  0  0  0  0
  1  2  2  0
  2  3  1  0
  2 16  1  0
  3  4  1  0
  3  6  2  0
  4  5  1  0
  6  7  1  0
  7 15  1  0
  7  8  1  0
 11 12  1  0
 12 28  1  0
 12 27  1  0
 12 26  1  0
 15 16  1  0
 15 25  2  0
 16 17  1  0
 17 18  1  0
 18 19  1  0
 18 29  1  0
 18 30  1  0
 30 31  1  0
 29 32  1  0
 31 32  1  0
 31 33  2  0
 29 34  1  0
 30 35  2  0
  8  9  2  0
  9 10  1  0
 10 11  2  0
 11 13  1  0
 13 14  2  0
 14  8  1  0
 19 20  2  0
 20 21  1  0
 21 22  2  0
 22 23  1  0
 23 24  2  0
 24 19  1  0
M  END

$$$$
No_403-gen_results_new/Mpro_new_generate_500/2024-01-19-21-58-56/
     RDKit          3D

 35 37  0  0  0  0  0  0  0  0999 V2000
   -9.1300   -2.9100    0.4520 O   0  0  0  0  0  0  0  0  0  0  0  0
  -10.2490   -2.6420    0.1800 C   0  0  0  0  0  0  0  0  0  0  0  0
  -11.3800   -3.0650    1.0860 C   0  0  0  0  0  0  0  0  0  0  0  0
  -11.2000   -3.8390    2.3880 C   0  0  0  0  0  0  0  0  0  0  0  0
  -10.9900   -5.0690    2.3420 N   0  0  0  0  0  0  0  0  0  0  0  0
  -12.7310   -2.7290    0.7330 N   0  0  0  0  0  0  0  0  0  0  0  0
  -12.9960   -1.9940   -0.4510 N   0  0  0  0  0  0  0  0  0  0  0  0
  -14.3580   -1.6940   -0.7530 C   0  0  0  0  0  0  0  0  0  0  0  0
  -15.0390   -0.7180   -0.0560 C   0  0  0  0  0  0  0  0  0  0  0  0
  -16.3510   -0.4690   -0.3980 C   0  0  0  0  0  0  0  0  0  0  0  0
  -16.9430   -1.2030   -1.4080 C   0  0  0  0  0  0  0  0  0  0  0  0
  -18.3840   -0.9560   -1.8060 C   0  0  0  0  0  0  0  0  0  0  0  0
  -16.2510   -2.1690   -2.1000 C   0  0  0  0  0  0  0  0  0  0  0  0
  -14.9490   -2.4160   -1.7590 C   0  0  0  0  0  0  0  0  0  0  0  0
  -11.9050   -1.5730   -1.3540 C   0  0  0  0  0  0  0  0  0  0  0  0
  -10.5280   -1.9050   -1.0240 N   0  0  0  0  0  0  0  0  0  0  0  0
   -9.4550   -1.4720   -1.9190 C   0  0  0  0  0  0  0  0  0  0  0  0
   -9.2820   -2.3940   -3.1270 C   0  0  0  0  0  0  0  0  0  0  0  0
   -7.8170   -2.5500   -3.5360 C   0  0  0  0  0  0  0  0  0  0  0  0
   -6.9720   -3.3210   -2.7550 C   0  0  0  0  0  0  0  0  0  0  0  0
   -5.6390   -3.4770   -3.1110 C   0  0  0  0  0  0  0  0  0  0  0  0
   -5.1940   -2.8390   -4.2640 C   0  0  0  0  0  0  0  0  0  0  0  0
   -6.0850   -2.0780   -5.0070 C   0  0  0  0  0  0  0  0  0  0  0  0
   -7.3470   -1.9600   -4.6270 N   0  0  0  0  0  0  0  0  0  0  0  0
  -12.1450   -0.9640   -2.3390 O   0  0  0  0  0  0  0  0  0  0  0  0
  -18.7610   -1.8760   -2.7390 F   0  0  0  0  0  0  0  0  0  0  0  0
  -18.4550    0.3250   -2.2750 F   0  0  0  0  0  0  0  0  0  0  0  0
  -19.1950   -1.1300   -0.7370 F   0  0  0  0  0  0  0  0  0  0  0  0
  -10.0453   -2.0069   -4.3181 C   0  0  0  0  0  0  0  0  0  0  0  0
   -9.8476   -3.8948   -2.8015 C   0  0  0  0  0  0  0  0  0  0  0  0
  -10.9871   -4.2370   -3.4678 C   0  0  0  0  0  0  0  0  0  0  0  0
  -10.9887   -4.6095   -4.4138 C   0  0  0  0  0  0  0  0  0  0  0  0
  -12.2714   -5.4253   -5.0618 C   0  0  0  0  0  0  0  0  0  0  0  0
  -13.2406   -5.5459   -4.1534 N   0  0  0  0  0  0  0  0  0  0  0  0
  -13.2217   -5.1891   -2.8961 C   0  0  0  0  0  0  0  0  0  0  0  0
  1  2  2  0
  2  3  1  0
  2 16  1  0
  3  4  1  0
  3  6  2  0
  4  5  1  0
  6  7  1  0
  7 15  1  0
  7  8  1  0
 11 12  1  0
 12 28  1  0
 12 27  1  0
 12 26  1  0
 15 16  1  0
 15 25  2  0
 16 17  1  0
 17 18  1  0
 18 19  1  0
 18 29  1  0
 18 30  1  0
 30 31  1  0
 31 32  2  3
 32 33  1  0
 33 34  1  0
 34 35  1  0
  8  9  2  0
  9 10  1  0
 10 11  2  0
 11 13  1  0
 13 14  2  0
 14  8  1  0
 19 20  2  0
 20 21  1  0
 21 22  2  0
 22 23  1  0
 23 24  2  0
 24 19  1  0
M  END

$$$$
No_404-gen_results_new/Mpro_new_generate_500/2024-01-19-21-58-56/
     RDKit          3D

 31 33  0  0  0  0  0  0  0  0999 V2000
   -9.1300   -2.9100    0.4520 O   0  0  0  0  0  0  0  0  0  0  0  0
  -10.2490   -2.6420    0.1800 C   0  0  0  0  0  0  0  0  0  0  0  0
  -11.3800   -3.0650    1.0860 C   0  0  0  0  0  0  0  0  0  0  0  0
  -11.2000   -3.8390    2.3880 C   0  0  0  0  0  0  0  0  0  0  0  0
  -10.9900   -5.0690    2.3420 N   0  0  0  0  0  0  0  0  0  0  0  0
  -12.7310   -2.7290    0.7330 N   0  0  0  0  0  0  0  0  0  0  0  0
  -12.9960   -1.9940   -0.4510 N   0  0  0  0  0  0  0  0  0  0  0  0
  -14.3580   -1.6940   -0.7530 C   0  0  0  0  0  0  0  0  0  0  0  0
  -15.0390   -0.7180   -0.0560 C   0  0  0  0  0  0  0  0  0  0  0  0
  -16.3510   -0.4690   -0.3980 C   0  0  0  0  0  0  0  0  0  0  0  0
  -16.9430   -1.2030   -1.4080 C   0  0  0  0  0  0  0  0  0  0  0  0
  -18.3840   -0.9560   -1.8060 C   0  0  0  0  0  0  0  0  0  0  0  0
  -16.2510   -2.1690   -2.1000 C   0  0  0  0  0  0  0  0  0  0  0  0
  -14.9490   -2.4160   -1.7590 C   0  0  0  0  0  0  0  0  0  0  0  0
  -11.9050   -1.5730   -1.3540 C   0  0  0  0  0  0  0  0  0  0  0  0
  -10.5280   -1.9050   -1.0240 N   0  0  0  0  0  0  0  0  0  0  0  0
   -9.4550   -1.4720   -1.9190 C   0  0  0  0  0  0  0  0  0  0  0  0
   -9.2820   -2.3940   -3.1270 C   0  0  0  0  0  0  0  0  0  0  0  0
   -7.8170   -2.5500   -3.5360 C   0  0  0  0  0  0  0  0  0  0  0  0
   -6.9720   -3.3210   -2.7550 C   0  0  0  0  0  0  0  0  0  0  0  0
   -5.6390   -3.4770   -3.1110 C   0  0  0  0  0  0  0  0  0  0  0  0
   -5.1940   -2.8390   -4.2640 C   0  0  0  0  0  0  0  0  0  0  0  0
   -6.0850   -2.0780   -5.0070 C   0  0  0  0  0  0  0  0  0  0  0  0
   -7.3470   -1.9600   -4.6270 N   0  0  0  0  0  0  0  0  0  0  0  0
  -12.1450   -0.9640   -2.3390 O   0  0  0  0  0  0  0  0  0  0  0  0
  -18.7610   -1.8760   -2.7390 F   0  0  0  0  0  0  0  0  0  0  0  0
  -18.4550    0.3250   -2.2750 F   0  0  0  0  0  0  0  0  0  0  0  0
  -19.1950   -1.1300   -0.7370 F   0  0  0  0  0  0  0  0  0  0  0  0
  -10.1861   -2.0270   -4.5221 S   0  0  0  0  0  0  0  0  0  0  0  0
  -10.0854   -3.4776   -5.5497 C   0  0  0  0  0  0  0  0  0  0  0  0
  -10.7576   -0.9687   -4.7584 O   0  0  0  0  0  0  0  0  0  0  0  0
  1  2  2  0
  2  3  1  0
  2 16  1  0
  3  4  1  0
  3  6  2  0
  4  5  1  0
  6  7  1  0
  7 15  1  0
  7  8  1  0
 11 12  1  0
 12 28  1  0
 12 27  1  0
 12 26  1  0
 15 16  1  0
 15 25  2  0
 16 17  1  0
 17 18  1  0
 18 19  1  0
 18 29  1  0
 29 30  3  0
 29 31  2  0
  8  9  2  0
  9 10  1  0
 10 11  2  0
 11 13  1  0
 13 14  2  0
 14  8  1  0
 19 20  2  0
 20 21  1  0
 21 22  2  0
 22 23  1  0
 23 24  2  0
 24 19  1  0
M  END

$$$$
No_405-gen_results_new/Mpro_new_generate_500/2024-01-19-21-58-56/
     RDKit          3D

 33 35  0  0  0  0  0  0  0  0999 V2000
   -9.1300   -2.9100    0.4520 O   0  0  0  0  0  0  0  0  0  0  0  0
  -10.2490   -2.6420    0.1800 C   0  0  0  0  0  0  0  0  0  0  0  0
  -11.3800   -3.0650    1.0860 C   0  0  0  0  0  0  0  0  0  0  0  0
  -11.2000   -3.8390    2.3880 C   0  0  0  0  0  0  0  0  0  0  0  0
  -10.9900   -5.0690    2.3420 N   0  0  0  0  0  0  0  0  0  0  0  0
  -12.7310   -2.7290    0.7330 N   0  0  0  0  0  0  0  0  0  0  0  0
  -12.9960   -1.9940   -0.4510 N   0  0  0  0  0  0  0  0  0  0  0  0
  -14.3580   -1.6940   -0.7530 C   0  0  0  0  0  0  0  0  0  0  0  0
  -15.0390   -0.7180   -0.0560 C   0  0  0  0  0  0  0  0  0  0  0  0
  -16.3510   -0.4690   -0.3980 C   0  0  0  0  0  0  0  0  0  0  0  0
  -16.9430   -1.2030   -1.4080 C   0  0  0  0  0  0  0  0  0  0  0  0
  -18.3840   -0.9560   -1.8060 C   0  0  0  0  0  0  0  0  0  0  0  0
  -16.2510   -2.1690   -2.1000 C   0  0  0  0  0  0  0  0  0  0  0  0
  -14.9490   -2.4160   -1.7590 C   0  0  0  0  0  0  0  0  0  0  0  0
  -11.9050   -1.5730   -1.3540 C   0  0  0  0  0  0  0  0  0  0  0  0
  -10.5280   -1.9050   -1.0240 N   0  0  0  0  0  0  0  0  0  0  0  0
   -9.4550   -1.4720   -1.9190 C   0  0  0  0  0  0  0  0  0  0  0  0
   -9.2820   -2.3940   -3.1270 C   0  0  0  0  0  0  0  0  0  0  0  0
   -7.8170   -2.5500   -3.5360 C   0  0  0  0  0  0  0  0  0  0  0  0
   -6.9720   -3.3210   -2.7550 C   0  0  0  0  0  0  0  0  0  0  0  0
   -5.6390   -3.4770   -3.1110 C   0  0  0  0  0  0  0  0  0  0  0  0
   -5.1940   -2.8390   -4.2640 C   0  0  0  0  0  0  0  0  0  0  0  0
   -6.0850   -2.0780   -5.0070 C   0  0  0  0  0  0  0  0  0  0  0  0
   -7.3470   -1.9600   -4.6270 N   0  0  0  0  0  0  0  0  0  0  0  0
  -12.1450   -0.9640   -2.3390 O   0  0  0  0  0  0  0  0  0  0  0  0
  -18.7610   -1.8760   -2.7390 F   0  0  0  0  0  0  0  0  0  0  0  0
  -18.4550    0.3250   -2.2750 F   0  0  0  0  0  0  0  0  0  0  0  0
  -19.1950   -1.1300   -0.7370 F   0  0  0  0  0  0  0  0  0  0  0  0
   -9.7561   -3.5765   -2.9053 O   0  0  0  0  0  0  0  0  0  0  0  0
  -16.7852   -3.0181   -3.1231 O   0  0  0  0  0  0  0  0  0  0  0  0
  -16.5763   -4.6712   -3.0496 S   0  0  0  0  0  0  0  0  0  0  0  0
  -16.7458   -5.3298   -2.2446 O   0  0  0  0  0  0  0  0  0  0  0  0
  -17.8767   -5.1793   -4.2014 C   0  0  0  0  0  0  0  0  0  0  0  0
  1  2  2  0
  2  3  1  0
  2 16  1  0
  3  4  1  0
  3  6  2  0
  4  5  1  0
  6  7  1  0
  7 15  1  0
  7  8  1  0
 11 12  1  0
 12 28  1  0
 12 27  1  0
 12 26  1  0
 15 16  1  0
 15 25  2  0
 16 17  1  0
 17 18  1  0
 18 19  1  0
 18 29  2  0
 13 30  1  0
 30 31  1  0
 31 32  2  0
 31 33  1  0
  8  9  2  0
  9 10  1  0
 10 11  2  0
 11 13  1  0
 13 14  2  0
 14  8  1  0
 19 20  2  0
 20 21  1  0
 21 22  2  0
 22 23  1  0
 23 24  2  0
 24 19  1  0
M  END

$$$$
No_406-gen_results_new/Mpro_new_generate_500/2024-01-19-21-58-56/
     RDKit          3D

 34 36  0  0  0  0  0  0  0  0999 V2000
   -9.1300   -2.9100    0.4520 O   0  0  0  0  0  0  0  0  0  0  0  0
  -10.2490   -2.6420    0.1800 C   0  0  0  0  0  0  0  0  0  0  0  0
  -11.3800   -3.0650    1.0860 C   0  0  0  0  0  0  0  0  0  0  0  0
  -11.2000   -3.8390    2.3880 C   0  0  0  0  0  0  0  0  0  0  0  0
  -10.9900   -5.0690    2.3420 N   0  0  0  0  0  0  0  0  0  0  0  0
  -12.7310   -2.7290    0.7330 N   0  0  0  0  0  0  0  0  0  0  0  0
  -12.9960   -1.9940   -0.4510 N   0  0  0  0  0  0  0  0  0  0  0  0
  -14.3580   -1.6940   -0.7530 C   0  0  0  0  0  0  0  0  0  0  0  0
  -15.0390   -0.7180   -0.0560 C   0  0  0  0  0  0  0  0  0  0  0  0
  -16.3510   -0.4690   -0.3980 C   0  0  0  0  0  0  0  0  0  0  0  0
  -16.9430   -1.2030   -1.4080 C   0  0  0  0  0  0  0  0  0  0  0  0
  -18.3840   -0.9560   -1.8060 C   0  0  0  0  0  0  0  0  0  0  0  0
  -16.2510   -2.1690   -2.1000 C   0  0  0  0  0  0  0  0  0  0  0  0
  -14.9490   -2.4160   -1.7590 C   0  0  0  0  0  0  0  0  0  0  0  0
  -11.9050   -1.5730   -1.3540 C   0  0  0  0  0  0  0  0  0  0  0  0
  -10.5280   -1.9050   -1.0240 N   0  0  0  0  0  0  0  0  0  0  0  0
   -9.4550   -1.4720   -1.9190 C   0  0  0  0  0  0  0  0  0  0  0  0
   -9.2820   -2.3940   -3.1270 C   0  0  0  0  0  0  0  0  0  0  0  0
   -7.8170   -2.5500   -3.5360 C   0  0  0  0  0  0  0  0  0  0  0  0
   -6.9720   -3.3210   -2.7550 C   0  0  0  0  0  0  0  0  0  0  0  0
   -5.6390   -3.4770   -3.1110 C   0  0  0  0  0  0  0  0  0  0  0  0
   -5.1940   -2.8390   -4.2640 C   0  0  0  0  0  0  0  0  0  0  0  0
   -6.0850   -2.0780   -5.0070 C   0  0  0  0  0  0  0  0  0  0  0  0
   -7.3470   -1.9600   -4.6270 N   0  0  0  0  0  0  0  0  0  0  0  0
  -12.1450   -0.9640   -2.3390 O   0  0  0  0  0  0  0  0  0  0  0  0
  -18.7610   -1.8760   -2.7390 F   0  0  0  0  0  0  0  0  0  0  0  0
  -18.4550    0.3250   -2.2750 F   0  0  0  0  0  0  0  0  0  0  0  0
  -19.1950   -1.1300   -0.7370 F   0  0  0  0  0  0  0  0  0  0  0  0
   -9.7920   -3.7475   -2.8656 C   0  0  0  0  0  0  0  0  0  0  0  0
  -10.1112   -2.1676   -4.1288 O   0  0  0  0  0  0  0  0  0  0  0  0
  -10.9497   -3.1465   -4.8669 C   0  0  0  0  0  0  0  0  0  0  0  0
  -11.2222   -2.6961   -6.3380 S   0  0  0  0  0  0  0  0  0  0  0  0
  -11.9208   -3.6537   -6.9438 O   0  0  0  0  0  0  0  0  0  0  0  0
   -9.9354   -2.5177   -6.9964 O   0  0  0  0  0  0  0  0  0  0  0  0
  1  2  2  0
  2  3  1  0
  2 16  1  0
  3  4  1  0
  3  6  2  0
  4  5  1  0
  6  7  1  0
  7 15  1  0
  7  8  1  0
 11 12  1  0
 12 28  1  0
 12 27  1  0
 12 26  1  0
 15 16  1  0
 15 25  2  0
 16 17  1  0
 17 18  1  0
 18 19  1  0
 18 29  1  0
 18 30  1  0
 30 31  1  0
 31 32  1  0
 32 33  2  0
 32 34  2  0
  8  9  2  0
  9 10  1  0
 10 11  2  0
 11 13  1  0
 13 14  2  0
 14  8  1  0
 19 20  2  0
 20 21  1  0
 21 22  2  0
 22 23  1  0
 23 24  2  0
 24 19  1  0
M  END

$$$$
No_407-gen_results_new/Mpro_new_generate_500/2024-01-19-21-58-56/
     RDKit          3D

 35 37  0  0  0  0  0  0  0  0999 V2000
   -9.1300   -2.9100    0.4520 O   0  0  0  0  0  0  0  0  0  0  0  0
  -10.2490   -2.6420    0.1800 C   0  0  0  0  0  0  0  0  0  0  0  0
  -11.3800   -3.0650    1.0860 C   0  0  0  0  0  0  0  0  0  0  0  0
  -11.2000   -3.8390    2.3880 C   0  0  0  0  0  0  0  0  0  0  0  0
  -10.9900   -5.0690    2.3420 N   0  0  0  0  0  0  0  0  0  0  0  0
  -12.7310   -2.7290    0.7330 N   0  0  0  0  0  0  0  0  0  0  0  0
  -12.9960   -1.9940   -0.4510 N   0  0  0  0  0  0  0  0  0  0  0  0
  -14.3580   -1.6940   -0.7530 C   0  0  0  0  0  0  0  0  0  0  0  0
  -15.0390   -0.7180   -0.0560 C   0  0  0  0  0  0  0  0  0  0  0  0
  -16.3510   -0.4690   -0.3980 C   0  0  0  0  0  0  0  0  0  0  0  0
  -16.9430   -1.2030   -1.4080 C   0  0  0  0  0  0  0  0  0  0  0  0
  -18.3840   -0.9560   -1.8060 C   0  0  0  0  0  0  0  0  0  0  0  0
  -16.2510   -2.1690   -2.1000 C   0  0  0  0  0  0  0  0  0  0  0  0
  -14.9490   -2.4160   -1.7590 C   0  0  0  0  0  0  0  0  0  0  0  0
  -11.9050   -1.5730   -1.3540 C   0  0  0  0  0  0  0  0  0  0  0  0
  -10.5280   -1.9050   -1.0240 N   0  0  0  0  0  0  0  0  0  0  0  0
   -9.4550   -1.4720   -1.9190 C   0  0  0  0  0  0  0  0  0  0  0  0
   -9.2820   -2.3940   -3.1270 C   0  0  0  0  0  0  0  0  0  0  0  0
   -7.8170   -2.5500   -3.5360 C   0  0  0  0  0  0  0  0  0  0  0  0
   -6.9720   -3.3210   -2.7550 C   0  0  0  0  0  0  0  0  0  0  0  0
   -5.6390   -3.4770   -3.1110 C   0  0  0  0  0  0  0  0  0  0  0  0
   -5.1940   -2.8390   -4.2640 C   0  0  0  0  0  0  0  0  0  0  0  0
   -6.0850   -2.0780   -5.0070 C   0  0  0  0  0  0  0  0  0  0  0  0
   -7.3470   -1.9600   -4.6270 N   0  0  0  0  0  0  0  0  0  0  0  0
  -12.1450   -0.9640   -2.3390 O   0  0  0  0  0  0  0  0  0  0  0  0
  -18.7610   -1.8760   -2.7390 F   0  0  0  0  0  0  0  0  0  0  0  0
  -18.4550    0.3250   -2.2750 F   0  0  0  0  0  0  0  0  0  0  0  0
  -19.1950   -1.1300   -0.7370 F   0  0  0  0  0  0  0  0  0  0  0  0
   -9.7920   -3.7475   -2.8656 C   0  0  0  0  0  0  0  0  0  0  0  0
  -10.0717   -1.8029   -4.3549 C   0  0  0  0  0  0  0  0  0  0  0  0
  -10.0419   -4.6597   -4.1091 C   0  0  0  0  0  0  0  0  0  0  0  0
   -9.3386   -5.3251   -4.5570 O   0  0  0  0  0  0  0  0  0  0  0  0
  -11.5412   -4.8267   -4.4118 C   0  0  0  0  0  0  0  0  0  0  0  0
  -11.8047   -5.2288   -5.6712 C   0  0  0  0  0  0  0  0  0  0  0  0
  -12.8203   -6.3109   -5.7156 N   0  0  0  0  0  0  0  0  0  0  0  0
  1  2  2  0
  2  3  1  0
  2 16  1  0
  3  4  1  0
  3  6  2  0
  4  5  1  0
  6  7  1  0
  7 15  1  0
  7  8  1  0
 11 12  1  0
 12 28  1  0
 12 27  1  0
 12 26  1  0
 15 16  1  0
 15 25  2  0
 16 17  1  0
 17 18  1  0
 18 19  1  0
 18 29  1  0
 18 30  1  0
 29 31  1  0
 31 32  2  0
 31 33  1  0
 33 34  1  0
 34 35  1  0
  8  9  2  0
  9 10  1  0
 10 11  2  0
 11 13  1  0
 13 14  2  0
 14  8  1  0
 19 20  2  0
 20 21  1  0
 21 22  2  0
 22 23  1  0
 23 24  2  0
 24 19  1  0
M  END

$$$$
No_408-gen_results_new/Mpro_new_generate_500/2024-01-19-21-58-56/
     RDKit          3D

 31 33  0  0  0  0  0  0  0  0999 V2000
   -9.1300   -2.9100    0.4520 O   0  0  0  0  0  0  0  0  0  0  0  0
  -10.2490   -2.6420    0.1800 C   0  0  0  0  0  0  0  0  0  0  0  0
  -11.3800   -3.0650    1.0860 C   0  0  0  0  0  0  0  0  0  0  0  0
  -11.2000   -3.8390    2.3880 C   0  0  0  0  0  0  0  0  0  0  0  0
  -10.9900   -5.0690    2.3420 N   0  0  0  0  0  0  0  0  0  0  0  0
  -12.7310   -2.7290    0.7330 N   0  0  0  0  0  0  0  0  0  0  0  0
  -12.9960   -1.9940   -0.4510 N   0  0  0  0  0  0  0  0  0  0  0  0
  -14.3580   -1.6940   -0.7530 C   0  0  0  0  0  0  0  0  0  0  0  0
  -15.0390   -0.7180   -0.0560 C   0  0  0  0  0  0  0  0  0  0  0  0
  -16.3510   -0.4690   -0.3980 C   0  0  0  0  0  0  0  0  0  0  0  0
  -16.9430   -1.2030   -1.4080 C   0  0  0  0  0  0  0  0  0  0  0  0
  -18.3840   -0.9560   -1.8060 C   0  0  0  0  0  0  0  0  0  0  0  0
  -16.2510   -2.1690   -2.1000 C   0  0  0  0  0  0  0  0  0  0  0  0
  -14.9490   -2.4160   -1.7590 C   0  0  0  0  0  0  0  0  0  0  0  0
  -11.9050   -1.5730   -1.3540 C   0  0  0  0  0  0  0  0  0  0  0  0
  -10.5280   -1.9050   -1.0240 N   0  0  0  0  0  0  0  0  0  0  0  0
   -9.4550   -1.4720   -1.9190 C   0  0  0  0  0  0  0  0  0  0  0  0
   -9.2820   -2.3940   -3.1270 C   0  0  0  0  0  0  0  0  0  0  0  0
   -7.8170   -2.5500   -3.5360 C   0  0  0  0  0  0  0  0  0  0  0  0
   -6.9720   -3.3210   -2.7550 C   0  0  0  0  0  0  0  0  0  0  0  0
   -5.6390   -3.4770   -3.1110 C   0  0  0  0  0  0  0  0  0  0  0  0
   -5.1940   -2.8390   -4.2640 C   0  0  0  0  0  0  0  0  0  0  0  0
   -6.0850   -2.0780   -5.0070 C   0  0  0  0  0  0  0  0  0  0  0  0
   -7.3470   -1.9600   -4.6270 N   0  0  0  0  0  0  0  0  0  0  0  0
  -12.1450   -0.9640   -2.3390 O   0  0  0  0  0  0  0  0  0  0  0  0
  -18.7610   -1.8760   -2.7390 F   0  0  0  0  0  0  0  0  0  0  0  0
  -18.4550    0.3250   -2.2750 F   0  0  0  0  0  0  0  0  0  0  0  0
  -19.1950   -1.1300   -0.7370 F   0  0  0  0  0  0  0  0  0  0  0  0
  -10.1467   -3.0903   -3.8357 C   0  0  0  0  0  0  0  0  0  0  0  0
  -10.1681   -2.5855   -3.6007 C   0  0  0  0  0  0  0  0  0  0  0  0
  -10.5499   -1.5777   -4.9257 C   0  0  0  0  0  0  0  0  0  0  0  0
  1  2  2  0
  2  3  1  0
  2 16  1  0
  3  4  1  0
  3  6  2  0
  4  5  1  0
  6  7  1  0
  7 15  1  0
  7  8  1  0
 11 12  1  0
 12 28  1  0
 12 27  1  0
 12 26  1  0
 15 16  1  0
 15 25  2  0
 16 17  1  0
 17 18  1  0
 18 19  1  0
 18 29  1  0
 29 30  2  3
 30 31  1  0
  8  9  2  0
  9 10  1  0
 10 11  2  0
 11 13  1  0
 13 14  2  0
 14  8  1  0
 19 20  2  0
 20 21  1  0
 21 22  2  0
 22 23  1  0
 23 24  2  0
 24 19  1  0
M  END

$$$$
No_409-gen_results_new/Mpro_new_generate_500/2024-01-19-21-58-56/
     RDKit          3D

 35 38  0  0  0  0  0  0  0  0999 V2000
   -9.1300   -2.9100    0.4520 O   0  0  0  0  0  0  0  0  0  0  0  0
  -10.2490   -2.6420    0.1800 C   0  0  0  0  0  0  0  0  0  0  0  0
  -11.3800   -3.0650    1.0860 C   0  0  0  0  0  0  0  0  0  0  0  0
  -11.2000   -3.8390    2.3880 C   0  0  0  0  0  0  0  0  0  0  0  0
  -10.9900   -5.0690    2.3420 N   0  0  0  0  0  0  0  0  0  0  0  0
  -12.7310   -2.7290    0.7330 N   0  0  0  0  0  0  0  0  0  0  0  0
  -12.9960   -1.9940   -0.4510 N   0  0  0  0  0  0  0  0  0  0  0  0
  -14.3580   -1.6940   -0.7530 C   0  0  0  0  0  0  0  0  0  0  0  0
  -15.0390   -0.7180   -0.0560 C   0  0  0  0  0  0  0  0  0  0  0  0
  -16.3510   -0.4690   -0.3980 C   0  0  0  0  0  0  0  0  0  0  0  0
  -16.9430   -1.2030   -1.4080 C   0  0  0  0  0  0  0  0  0  0  0  0
  -18.3840   -0.9560   -1.8060 C   0  0  0  0  0  0  0  0  0  0  0  0
  -16.2510   -2.1690   -2.1000 C   0  0  0  0  0  0  0  0  0  0  0  0
  -14.9490   -2.4160   -1.7590 C   0  0  0  0  0  0  0  0  0  0  0  0
  -11.9050   -1.5730   -1.3540 C   0  0  0  0  0  0  0  0  0  0  0  0
  -10.5280   -1.9050   -1.0240 N   0  0  0  0  0  0  0  0  0  0  0  0
   -9.4550   -1.4720   -1.9190 C   0  0  0  0  0  0  0  0  0  0  0  0
   -9.2820   -2.3940   -3.1270 C   0  0  0  0  0  0  0  0  0  0  0  0
   -7.8170   -2.5500   -3.5360 C   0  0  0  0  0  0  0  0  0  0  0  0
   -6.9720   -3.3210   -2.7550 C   0  0  0  0  0  0  0  0  0  0  0  0
   -5.6390   -3.4770   -3.1110 C   0  0  0  0  0  0  0  0  0  0  0  0
   -5.1940   -2.8390   -4.2640 C   0  0  0  0  0  0  0  0  0  0  0  0
   -6.0850   -2.0780   -5.0070 C   0  0  0  0  0  0  0  0  0  0  0  0
   -7.3470   -1.9600   -4.6270 N   0  0  0  0  0  0  0  0  0  0  0  0
  -12.1450   -0.9640   -2.3390 O   0  0  0  0  0  0  0  0  0  0  0  0
  -18.7610   -1.8760   -2.7390 F   0  0  0  0  0  0  0  0  0  0  0  0
  -18.4550    0.3250   -2.2750 F   0  0  0  0  0  0  0  0  0  0  0  0
  -19.1950   -1.1300   -0.7370 F   0  0  0  0  0  0  0  0  0  0  0  0
   -9.7920   -3.7475   -2.8656 C   0  0  0  0  0  0  0  0  0  0  0  0
  -10.1387   -2.0206   -4.2903 C   0  0  0  0  0  0  0  0  0  0  0  0
  -10.7383   -4.2958   -3.7467 C   0  0  0  0  0  0  0  0  0  0  0  0
  -10.9789   -2.9649   -4.4688 O   0  0  0  0  0  0  0  0  0  0  0  0
   -9.5312   -1.8750   -5.4995 F   0  0  0  0  0  0  0  0  0  0  0  0
  -10.7917   -0.6241   -4.4196 C   0  0  0  0  0  0  0  0  0  0  0  0
   -9.3117   -4.5777   -1.9925 O   0  0  0  0  0  0  0  0  0  0  0  0
  1  2  2  0
  2  3  1  0
  2 16  1  0
  3  4  1  0
  3  6  2  0
  4  5  1  0
  6  7  1  0
  7 15  1  0
  7  8  1  0
 11 12  1  0
 12 28  1  0
 12 27  1  0
 12 26  1  0
 15 16  1  0
 15 25  2  0
 16 17  1  0
 17 18  1  0
 18 19  1  0
 18 29  1  0
 18 30  1  0
 29 31  1  0
 30 32  1  0
 31 32  1  0
 30 33  1  0
 30 34  1  0
 29 35  2  0
  8  9  2  0
  9 10  1  0
 10 11  2  0
 11 13  1  0
 13 14  2  0
 14  8  1  0
 19 20  2  0
 20 21  1  0
 21 22  2  0
 22 23  1  0
 23 24  2  0
 24 19  1  0
M  END

$$$$
No_410-gen_results_new/Mpro_new_generate_500/2024-01-19-21-58-56/
     RDKit          3D

 33 36  0  0  0  0  0  0  0  0999 V2000
   -9.1300   -2.9100    0.4520 O   0  0  0  0  0  0  0  0  0  0  0  0
  -10.2490   -2.6420    0.1800 C   0  0  0  0  0  0  0  0  0  0  0  0
  -11.3800   -3.0650    1.0860 C   0  0  0  0  0  0  0  0  0  0  0  0
  -11.2000   -3.8390    2.3880 C   0  0  0  0  0  0  0  0  0  0  0  0
  -10.9900   -5.0690    2.3420 N   0  0  0  0  0  0  0  0  0  0  0  0
  -12.7310   -2.7290    0.7330 N   0  0  0  0  0  0  0  0  0  0  0  0
  -12.9960   -1.9940   -0.4510 N   0  0  0  0  0  0  0  0  0  0  0  0
  -14.3580   -1.6940   -0.7530 C   0  0  0  0  0  0  0  0  0  0  0  0
  -15.0390   -0.7180   -0.0560 C   0  0  0  0  0  0  0  0  0  0  0  0
  -16.3510   -0.4690   -0.3980 C   0  0  0  0  0  0  0  0  0  0  0  0
  -16.9430   -1.2030   -1.4080 C   0  0  0  0  0  0  0  0  0  0  0  0
  -18.3840   -0.9560   -1.8060 C   0  0  0  0  0  0  0  0  0  0  0  0
  -16.2510   -2.1690   -2.1000 C   0  0  0  0  0  0  0  0  0  0  0  0
  -14.9490   -2.4160   -1.7590 C   0  0  0  0  0  0  0  0  0  0  0  0
  -11.9050   -1.5730   -1.3540 C   0  0  0  0  0  0  0  0  0  0  0  0
  -10.5280   -1.9050   -1.0240 N   0  0  0  0  0  0  0  0  0  0  0  0
   -9.4550   -1.4720   -1.9190 C   0  0  0  0  0  0  0  0  0  0  0  0
   -9.2820   -2.3940   -3.1270 C   0  0  0  0  0  0  0  0  0  0  0  0
   -7.8170   -2.5500   -3.5360 C   0  0  0  0  0  0  0  0  0  0  0  0
   -6.9720   -3.3210   -2.7550 C   0  0  0  0  0  0  0  0  0  0  0  0
   -5.6390   -3.4770   -3.1110 C   0  0  0  0  0  0  0  0  0  0  0  0
   -5.1940   -2.8390   -4.2640 C   0  0  0  0  0  0  0  0  0  0  0  0
   -6.0850   -2.0780   -5.0070 C   0  0  0  0  0  0  0  0  0  0  0  0
   -7.3470   -1.9600   -4.6270 N   0  0  0  0  0  0  0  0  0  0  0  0
  -12.1450   -0.9640   -2.3390 O   0  0  0  0  0  0  0  0  0  0  0  0
  -18.7610   -1.8760   -2.7390 F   0  0  0  0  0  0  0  0  0  0  0  0
  -18.4550    0.3250   -2.2750 F   0  0  0  0  0  0  0  0  0  0  0  0
  -19.1950   -1.1300   -0.7370 F   0  0  0  0  0  0  0  0  0  0  0  0
  -10.0453   -2.0069   -4.3181 C   0  0  0  0  0  0  0  0  0  0  0  0
   -9.8476   -3.8948   -2.8015 C   0  0  0  0  0  0  0  0  0  0  0  0
  -10.9871   -4.2370   -3.4678 C   0  0  0  0  0  0  0  0  0  0  0  0
  -11.2794   -2.9828   -4.6813 S   0  0  0  0  0  0  0  0  0  0  0  0
   -9.4843   -4.6470   -1.8917 O   0  0  0  0  0  0  0  0  0  0  0  0
  1  2  2  0
  2  3  1  0
  2 16  1  0
  3  4  1  0
  3  6  2  0
  4  5  1  0
  6  7  1  0
  7 15  1  0
  7  8  1  0
 11 12  1  0
 12 28  1  0
 12 27  1  0
 12 26  1  0
 15 16  1  0
 15 25  2  0
 16 17  1  0
 17 18  1  0
 18 19  1  0
 18 29  1  0
 18 30  1  0
 30 31  1  0
 29 32  1  0
 31 32  1  0
 30 33  2  0
  8  9  2  0
  9 10  1  0
 10 11  2  0
 11 13  1  0
 13 14  2  0
 14  8  1  0
 19 20  2  0
 20 21  1  0
 21 22  2  0
 22 23  1  0
 23 24  2  0
 24 19  1  0
M  END

$$$$
No_411-gen_results_new/Mpro_new_generate_500/2024-01-19-21-58-56/
     RDKit          3D

 34 36  0  0  0  0  0  0  0  0999 V2000
   -9.1300   -2.9100    0.4520 O   0  0  0  0  0  0  0  0  0  0  0  0
  -10.2490   -2.6420    0.1800 C   0  0  0  0  0  0  0  0  0  0  0  0
  -11.3800   -3.0650    1.0860 C   0  0  0  0  0  0  0  0  0  0  0  0
  -11.2000   -3.8390    2.3880 C   0  0  0  0  0  0  0  0  0  0  0  0
  -10.9900   -5.0690    2.3420 N   0  0  0  0  0  0  0  0  0  0  0  0
  -12.7310   -2.7290    0.7330 N   0  0  0  0  0  0  0  0  0  0  0  0
  -12.9960   -1.9940   -0.4510 N   0  0  0  0  0  0  0  0  0  0  0  0
  -14.3580   -1.6940   -0.7530 C   0  0  0  0  0  0  0  0  0  0  0  0
  -15.0390   -0.7180   -0.0560 C   0  0  0  0  0  0  0  0  0  0  0  0
  -16.3510   -0.4690   -0.3980 C   0  0  0  0  0  0  0  0  0  0  0  0
  -16.9430   -1.2030   -1.4080 C   0  0  0  0  0  0  0  0  0  0  0  0
  -18.3840   -0.9560   -1.8060 C   0  0  0  0  0  0  0  0  0  0  0  0
  -16.2510   -2.1690   -2.1000 C   0  0  0  0  0  0  0  0  0  0  0  0
  -14.9490   -2.4160   -1.7590 C   0  0  0  0  0  0  0  0  0  0  0  0
  -11.9050   -1.5730   -1.3540 C   0  0  0  0  0  0  0  0  0  0  0  0
  -10.5280   -1.9050   -1.0240 N   0  0  0  0  0  0  0  0  0  0  0  0
   -9.4550   -1.4720   -1.9190 C   0  0  0  0  0  0  0  0  0  0  0  0
   -9.2820   -2.3940   -3.1270 C   0  0  0  0  0  0  0  0  0  0  0  0
   -7.8170   -2.5500   -3.5360 C   0  0  0  0  0  0  0  0  0  0  0  0
   -6.9720   -3.3210   -2.7550 C   0  0  0  0  0  0  0  0  0  0  0  0
   -5.6390   -3.4770   -3.1110 C   0  0  0  0  0  0  0  0  0  0  0  0
   -5.1940   -2.8390   -4.2640 C   0  0  0  0  0  0  0  0  0  0  0  0
   -6.0850   -2.0780   -5.0070 C   0  0  0  0  0  0  0  0  0  0  0  0
   -7.3470   -1.9600   -4.6270 N   0  0  0  0  0  0  0  0  0  0  0  0
  -12.1450   -0.9640   -2.3390 O   0  0  0  0  0  0  0  0  0  0  0  0
  -18.7610   -1.8760   -2.7390 F   0  0  0  0  0  0  0  0  0  0  0  0
  -18.4550    0.3250   -2.2750 F   0  0  0  0  0  0  0  0  0  0  0  0
  -19.1950   -1.1300   -0.7370 F   0  0  0  0  0  0  0  0  0  0  0  0
  -10.1467   -3.0903   -3.8357 C   0  0  0  0  0  0  0  0  0  0  0  0
  -10.1681   -2.5855   -3.6007 C   0  0  0  0  0  0  0  0  0  0  0  0
  -11.3342   -2.0464   -3.9986 O   0  0  0  0  0  0  0  0  0  0  0  0
  -10.2948   -3.5026   -4.4768 C   0  0  0  0  0  0  0  0  0  0  0  0
  -11.1345   -0.9491   -4.7919 C   0  0  0  0  0  0  0  0  0  0  0  0
  -10.0376   -1.9626   -2.7006 F   0  0  0  0  0  0  0  0  0  0  0  0
  1  2  2  0
  2  3  1  0
  2 16  1  0
  3  4  1  0
  3  6  2  0
  4  5  1  0
  6  7  1  0
  7 15  1  0
  7  8  1  0
 11 12  1  0
 12 28  1  0
 12 27  1  0
 12 26  1  0
 15 16  1  0
 15 25  2  0
 16 17  1  0
 17 18  1  0
 18 19  1  0
 18 29  1  0
 29 30  1  0
 30 31  1  0
 29 32  1  0
 31 33  1  0
 18 34  1  0
  8  9  2  0
  9 10  1  0
 10 11  2  0
 11 13  1  0
 13 14  2  0
 14  8  1  0
 19 20  2  0
 20 21  1  0
 21 22  2  0
 22 23  1  0
 23 24  2  0
 24 19  1  0
M  END

$$$$
No_412-gen_results_new/Mpro_new_generate_500/2024-01-19-21-58-56/
     RDKit          3D

 34 36  0  0  0  0  0  0  0  0999 V2000
   -9.1300   -2.9100    0.4520 O   0  0  0  0  0  0  0  0  0  0  0  0
  -10.2490   -2.6420    0.1800 C   0  0  0  0  0  0  0  0  0  0  0  0
  -11.3800   -3.0650    1.0860 C   0  0  0  0  0  0  0  0  0  0  0  0
  -11.2000   -3.8390    2.3880 C   0  0  0  0  0  0  0  0  0  0  0  0
  -10.9900   -5.0690    2.3420 N   0  0  0  0  0  0  0  0  0  0  0  0
  -12.7310   -2.7290    0.7330 N   0  0  0  0  0  0  0  0  0  0  0  0
  -12.9960   -1.9940   -0.4510 N   0  0  0  0  0  0  0  0  0  0  0  0
  -14.3580   -1.6940   -0.7530 C   0  0  0  0  0  0  0  0  0  0  0  0
  -15.0390   -0.7180   -0.0560 C   0  0  0  0  0  0  0  0  0  0  0  0
  -16.3510   -0.4690   -0.3980 C   0  0  0  0  0  0  0  0  0  0  0  0
  -16.9430   -1.2030   -1.4080 C   0  0  0  0  0  0  0  0  0  0  0  0
  -18.3840   -0.9560   -1.8060 C   0  0  0  0  0  0  0  0  0  0  0  0
  -16.2510   -2.1690   -2.1000 C   0  0  0  0  0  0  0  0  0  0  0  0
  -14.9490   -2.4160   -1.7590 C   0  0  0  0  0  0  0  0  0  0  0  0
  -11.9050   -1.5730   -1.3540 C   0  0  0  0  0  0  0  0  0  0  0  0
  -10.5280   -1.9050   -1.0240 N   0  0  0  0  0  0  0  0  0  0  0  0
   -9.4550   -1.4720   -1.9190 C   0  0  0  0  0  0  0  0  0  0  0  0
   -9.2820   -2.3940   -3.1270 C   0  0  0  0  0  0  0  0  0  0  0  0
   -7.8170   -2.5500   -3.5360 C   0  0  0  0  0  0  0  0  0  0  0  0
   -6.9720   -3.3210   -2.7550 C   0  0  0  0  0  0  0  0  0  0  0  0
   -5.6390   -3.4770   -3.1110 C   0  0  0  0  0  0  0  0  0  0  0  0
   -5.1940   -2.8390   -4.2640 C   0  0  0  0  0  0  0  0  0  0  0  0
   -6.0850   -2.0780   -5.0070 C   0  0  0  0  0  0  0  0  0  0  0  0
   -7.3470   -1.9600   -4.6270 N   0  0  0  0  0  0  0  0  0  0  0  0
  -12.1450   -0.9640   -2.3390 O   0  0  0  0  0  0  0  0  0  0  0  0
  -18.7610   -1.8760   -2.7390 F   0  0  0  0  0  0  0  0  0  0  0  0
  -18.4550    0.3250   -2.2750 F   0  0  0  0  0  0  0  0  0  0  0  0
  -19.1950   -1.1300   -0.7370 F   0  0  0  0  0  0  0  0  0  0  0  0
  -10.3357   -3.2037   -4.0333 S   0  0  0  0  0  0  0  0  0  0  0  0
   -9.7466   -4.3906   -4.8570 O   0  0  0  0  0  0  0  0  0  0  0  0
  -11.5919   -2.9845   -4.2369 O   0  0  0  0  0  0  0  0  0  0  0  0
  -10.1266   -4.4582   -4.0248 C   0  0  0  0  0  0  0  0  0  0  0  0
   -9.4248   -5.0848   -2.7695 C   0  0  0  0  0  0  0  0  0  0  0  0
  -11.3355   -5.5371   -4.4710 C   0  0  0  0  0  0  0  0  0  0  0  0
  1  2  2  0
  2  3  1  0
  2 16  1  0
  3  4  1  0
  3  6  2  0
  4  5  1  0
  6  7  1  0
  7 15  1  0
  7  8  1  0
 11 12  1  0
 12 28  1  0
 12 27  1  0
 12 26  1  0
 15 16  1  0
 15 25  2  0
 16 17  1  0
 17 18  1  0
 18 19  1  0
 18 29  1  0
 29 30  2  0
 29 31  2  0
 29 32  1  0
 32 33  1  0
 32 34  1  0
  8  9  2  0
  9 10  1  0
 10 11  2  0
 11 13  1  0
 13 14  2  0
 14  8  1  0
 19 20  2  0
 20 21  1  0
 21 22  2  0
 22 23  1  0
 23 24  2  0
 24 19  1  0
M  END

$$$$
No_413-gen_results_new/Mpro_new_generate_500/2024-01-19-21-58-56/
     RDKit          3D

 34 37  0  0  0  0  0  0  0  0999 V2000
   -9.1300   -2.9100    0.4520 O   0  0  0  0  0  0  0  0  0  0  0  0
  -10.2490   -2.6420    0.1800 C   0  0  0  0  0  0  0  0  0  0  0  0
  -11.3800   -3.0650    1.0860 C   0  0  0  0  0  0  0  0  0  0  0  0
  -11.2000   -3.8390    2.3880 C   0  0  0  0  0  0  0  0  0  0  0  0
  -10.9900   -5.0690    2.3420 N   0  0  0  0  0  0  0  0  0  0  0  0
  -12.7310   -2.7290    0.7330 N   0  0  0  0  0  0  0  0  0  0  0  0
  -12.9960   -1.9940   -0.4510 N   0  0  0  0  0  0  0  0  0  0  0  0
  -14.3580   -1.6940   -0.7530 C   0  0  0  0  0  0  0  0  0  0  0  0
  -15.0390   -0.7180   -0.0560 C   0  0  0  0  0  0  0  0  0  0  0  0
  -16.3510   -0.4690   -0.3980 C   0  0  0  0  0  0  0  0  0  0  0  0
  -16.9430   -1.2030   -1.4080 C   0  0  0  0  0  0  0  0  0  0  0  0
  -18.3840   -0.9560   -1.8060 C   0  0  0  0  0  0  0  0  0  0  0  0
  -16.2510   -2.1690   -2.1000 C   0  0  0  0  0  0  0  0  0  0  0  0
  -14.9490   -2.4160   -1.7590 C   0  0  0  0  0  0  0  0  0  0  0  0
  -11.9050   -1.5730   -1.3540 C   0  0  0  0  0  0  0  0  0  0  0  0
  -10.5280   -1.9050   -1.0240 N   0  0  0  0  0  0  0  0  0  0  0  0
   -9.4550   -1.4720   -1.9190 C   0  0  0  0  0  0  0  0  0  0  0  0
   -9.2820   -2.3940   -3.1270 C   0  0  0  0  0  0  0  0  0  0  0  0
   -7.8170   -2.5500   -3.5360 C   0  0  0  0  0  0  0  0  0  0  0  0
   -6.9720   -3.3210   -2.7550 C   0  0  0  0  0  0  0  0  0  0  0  0
   -5.6390   -3.4770   -3.1110 C   0  0  0  0  0  0  0  0  0  0  0  0
   -5.1940   -2.8390   -4.2640 C   0  0  0  0  0  0  0  0  0  0  0  0
   -6.0850   -2.0780   -5.0070 C   0  0  0  0  0  0  0  0  0  0  0  0
   -7.3470   -1.9600   -4.6270 N   0  0  0  0  0  0  0  0  0  0  0  0
  -12.1450   -0.9640   -2.3390 O   0  0  0  0  0  0  0  0  0  0  0  0
  -18.7610   -1.8760   -2.7390 F   0  0  0  0  0  0  0  0  0  0  0  0
  -18.4550    0.3250   -2.2750 F   0  0  0  0  0  0  0  0  0  0  0  0
  -19.1950   -1.1300   -0.7370 F   0  0  0  0  0  0  0  0  0  0  0  0
  -10.0453   -2.0069   -4.3181 C   0  0  0  0  0  0  0  0  0  0  0  0
   -9.8480   -3.6882   -2.9621 O   0  0  0  0  0  0  0  0  0  0  0  0
  -10.8405   -4.1176   -3.7919 C   0  0  0  0  0  0  0  0  0  0  0  0
  -11.0593   -2.8284   -4.6039 C   0  0  0  0  0  0  0  0  0  0  0  0
  -11.6363   -5.1109   -4.0196 C   0  0  0  0  0  0  0  0  0  0  0  0
  -10.1026   -0.6495   -4.9985 C   0  0  0  0  0  0  0  0  0  0  0  0
  1  2  2  0
  2  3  1  0
  2 16  1  0
  3  4  1  0
  3  6  2  0
  4  5  1  0
  6  7  1  0
  7 15  1  0
  7  8  1  0
 11 12  1  0
 12 28  1  0
 12 27  1  0
 12 26  1  0
 15 16  1  0
 15 25  2  0
 16 17  1  0
 17 18  1  0
 18 19  1  0
 18 29  1  0
 18 30  1  0
 30 31  1  0
 29 32  1  0
 31 32  1  0
 31 33  1  0
 29 34  1  0
  8  9  2  0
  9 10  1  0
 10 11  2  0
 11 13  1  0
 13 14  2  0
 14  8  1  0
 19 20  2  0
 20 21  1  0
 21 22  2  0
 22 23  1  0
 23 24  2  0
 24 19  1  0
M  END

$$$$
No_414-gen_results_new/Mpro_new_generate_500/2024-01-19-21-58-56/
     RDKit          3D

 33 35  0  0  0  0  0  0  0  0999 V2000
   -9.1300   -2.9100    0.4520 O   0  0  0  0  0  0  0  0  0  0  0  0
  -10.2490   -2.6420    0.1800 C   0  0  0  0  0  0  0  0  0  0  0  0
  -11.3800   -3.0650    1.0860 C   0  0  0  0  0  0  0  0  0  0  0  0
  -11.2000   -3.8390    2.3880 C   0  0  0  0  0  0  0  0  0  0  0  0
  -10.9900   -5.0690    2.3420 N   0  0  0  0  0  0  0  0  0  0  0  0
  -12.7310   -2.7290    0.7330 N   0  0  0  0  0  0  0  0  0  0  0  0
  -12.9960   -1.9940   -0.4510 N   0  0  0  0  0  0  0  0  0  0  0  0
  -14.3580   -1.6940   -0.7530 C   0  0  0  0  0  0  0  0  0  0  0  0
  -15.0390   -0.7180   -0.0560 C   0  0  0  0  0  0  0  0  0  0  0  0
  -16.3510   -0.4690   -0.3980 C   0  0  0  0  0  0  0  0  0  0  0  0
  -16.9430   -1.2030   -1.4080 C   0  0  0  0  0  0  0  0  0  0  0  0
  -18.3840   -0.9560   -1.8060 C   0  0  0  0  0  0  0  0  0  0  0  0
  -16.2510   -2.1690   -2.1000 C   0  0  0  0  0  0  0  0  0  0  0  0
  -14.9490   -2.4160   -1.7590 C   0  0  0  0  0  0  0  0  0  0  0  0
  -11.9050   -1.5730   -1.3540 C   0  0  0  0  0  0  0  0  0  0  0  0
  -10.5280   -1.9050   -1.0240 N   0  0  0  0  0  0  0  0  0  0  0  0
   -9.4550   -1.4720   -1.9190 C   0  0  0  0  0  0  0  0  0  0  0  0
   -9.2820   -2.3940   -3.1270 C   0  0  0  0  0  0  0  0  0  0  0  0
   -7.8170   -2.5500   -3.5360 C   0  0  0  0  0  0  0  0  0  0  0  0
   -6.9720   -3.3210   -2.7550 C   0  0  0  0  0  0  0  0  0  0  0  0
   -5.6390   -3.4770   -3.1110 C   0  0  0  0  0  0  0  0  0  0  0  0
   -5.1940   -2.8390   -4.2640 C   0  0  0  0  0  0  0  0  0  0  0  0
   -6.0850   -2.0780   -5.0070 C   0  0  0  0  0  0  0  0  0  0  0  0
   -7.3470   -1.9600   -4.6270 N   0  0  0  0  0  0  0  0  0  0  0  0
  -12.1450   -0.9640   -2.3390 O   0  0  0  0  0  0  0  0  0  0  0  0
  -18.7610   -1.8760   -2.7390 F   0  0  0  0  0  0  0  0  0  0  0  0
  -18.4550    0.3250   -2.2750 F   0  0  0  0  0  0  0  0  0  0  0  0
  -19.1950   -1.1300   -0.7370 F   0  0  0  0  0  0  0  0  0  0  0  0
  -10.1467   -3.0903   -3.8357 C   0  0  0  0  0  0  0  0  0  0  0  0
  -10.1681   -2.5855   -3.6007 C   0  0  0  0  0  0  0  0  0  0  0  0
  -11.3272   -2.1323   -3.8488 F   0  0  0  0  0  0  0  0  0  0  0  0
   -9.7491   -1.9495   -4.2881 O   0  0  0  0  0  0  0  0  0  0  0  0
   -9.5797   -2.3449   -5.4555 C   0  0  0  0  0  0  0  0  0  0  0  0
  1  2  2  0
  2  3  1  0
  2 16  1  0
  3  4  1  0
  3  6  2  0
  4  5  1  0
  6  7  1  0
  7 15  1  0
  7  8  1  0
 11 12  1  0
 12 28  1  0
 12 27  1  0
 12 26  1  0
 15 16  1  0
 15 25  2  0
 16 17  1  0
 17 18  1  0
 18 19  1  0
 18 29  1  0
 29 30  1  0
 30 31  1  0
 30 32  1  0
 32 33  1  0
  8  9  2  0
  9 10  1  0
 10 11  2  0
 11 13  1  0
 13 14  2  0
 14  8  1  0
 19 20  2  0
 20 21  1  0
 21 22  2  0
 22 23  1  0
 23 24  2  0
 24 19  1  0
M  END

$$$$
No_415-gen_results_new/Mpro_new_generate_500/2024-01-19-21-58-56/
     RDKit          3D

 35 38  0  0  0  0  0  0  0  0999 V2000
   -9.1300   -2.9100    0.4520 O   0  0  0  0  0  0  0  0  0  0  0  0
  -10.2490   -2.6420    0.1800 C   0  0  0  0  0  0  0  0  0  0  0  0
  -11.3800   -3.0650    1.0860 C   0  0  0  0  0  0  0  0  0  0  0  0
  -11.2000   -3.8390    2.3880 C   0  0  0  0  0  0  0  0  0  0  0  0
  -10.9900   -5.0690    2.3420 N   0  0  0  0  0  0  0  0  0  0  0  0
  -12.7310   -2.7290    0.7330 N   0  0  0  0  0  0  0  0  0  0  0  0
  -12.9960   -1.9940   -0.4510 N   0  0  0  0  0  0  0  0  0  0  0  0
  -14.3580   -1.6940   -0.7530 C   0  0  0  0  0  0  0  0  0  0  0  0
  -15.0390   -0.7180   -0.0560 C   0  0  0  0  0  0  0  0  0  0  0  0
  -16.3510   -0.4690   -0.3980 C   0  0  0  0  0  0  0  0  0  0  0  0
  -16.9430   -1.2030   -1.4080 C   0  0  0  0  0  0  0  0  0  0  0  0
  -18.3840   -0.9560   -1.8060 C   0  0  0  0  0  0  0  0  0  0  0  0
  -16.2510   -2.1690   -2.1000 C   0  0  0  0  0  0  0  0  0  0  0  0
  -14.9490   -2.4160   -1.7590 C   0  0  0  0  0  0  0  0  0  0  0  0
  -11.9050   -1.5730   -1.3540 C   0  0  0  0  0  0  0  0  0  0  0  0
  -10.5280   -1.9050   -1.0240 N   0  0  0  0  0  0  0  0  0  0  0  0
   -9.4550   -1.4720   -1.9190 C   0  0  0  0  0  0  0  0  0  0  0  0
   -9.2820   -2.3940   -3.1270 C   0  0  0  0  0  0  0  0  0  0  0  0
   -7.8170   -2.5500   -3.5360 C   0  0  0  0  0  0  0  0  0  0  0  0
   -6.9720   -3.3210   -2.7550 C   0  0  0  0  0  0  0  0  0  0  0  0
   -5.6390   -3.4770   -3.1110 C   0  0  0  0  0  0  0  0  0  0  0  0
   -5.1940   -2.8390   -4.2640 C   0  0  0  0  0  0  0  0  0  0  0  0
   -6.0850   -2.0780   -5.0070 C   0  0  0  0  0  0  0  0  0  0  0  0
   -7.3470   -1.9600   -4.6270 N   0  0  0  0  0  0  0  0  0  0  0  0
  -12.1450   -0.9640   -2.3390 O   0  0  0  0  0  0  0  0  0  0  0  0
  -18.7610   -1.8760   -2.7390 F   0  0  0  0  0  0  0  0  0  0  0  0
  -18.4550    0.3250   -2.2750 F   0  0  0  0  0  0  0  0  0  0  0  0
  -19.1950   -1.1300   -0.7370 F   0  0  0  0  0  0  0  0  0  0  0  0
  -10.0453   -2.0069   -4.3181 C   0  0  0  0  0  0  0  0  0  0  0  0
   -9.8903   -3.8143   -2.9484 C   0  0  0  0  0  0  0  0  0  0  0  0
  -10.8021   -4.2389   -3.8324 C   0  0  0  0  0  0  0  0  0  0  0  0
  -11.0335   -2.9113   -4.5758 C   0  0  0  0  0  0  0  0  0  0  0  0
   -9.9510   -0.8786   -5.0000 O   0  0  0  0  0  0  0  0  0  0  0  0
   -9.5357   -4.7026   -2.0549 O   0  0  0  0  0  0  0  0  0  0  0  0
  -12.1010   -4.7935   -3.3935 C   0  0  0  0  0  0  0  0  0  0  0  0
  1  2  2  0
  2  3  1  0
  2 16  1  0
  3  4  1  0
  3  6  2  0
  4  5  1  0
  6  7  1  0
  7 15  1  0
  7  8  1  0
 11 12  1  0
 12 28  1  0
 12 27  1  0
 12 26  1  0
 15 16  1  0
 15 25  2  0
 16 17  1  0
 17 18  1  0
 18 19  1  0
 18 29  1  0
 18 30  1  0
 30 31  1  0
 29 32  1  0
 31 32  2  0
 29 33  2  0
 30 34  2  0
 31 35  1  0
  8  9  2  0
  9 10  1  0
 10 11  2  0
 11 13  1  0
 13 14  2  0
 14  8  1  0
 19 20  2  0
 20 21  1  0
 21 22  2  0
 22 23  1  0
 23 24  2  0
 24 19  1  0
M  END

$$$$
No_416-gen_results_new/Mpro_new_generate_500/2024-01-19-21-58-56/
     RDKit          3D

 33 35  0  0  0  0  0  0  0  0999 V2000
   -9.1300   -2.9100    0.4520 O   0  0  0  0  0  0  0  0  0  0  0  0
  -10.2490   -2.6420    0.1800 C   0  0  0  0  0  0  0  0  0  0  0  0
  -11.3800   -3.0650    1.0860 C   0  0  0  0  0  0  0  0  0  0  0  0
  -11.2000   -3.8390    2.3880 C   0  0  0  0  0  0  0  0  0  0  0  0
  -10.9900   -5.0690    2.3420 N   0  0  0  0  0  0  0  0  0  0  0  0
  -12.7310   -2.7290    0.7330 N   0  0  0  0  0  0  0  0  0  0  0  0
  -12.9960   -1.9940   -0.4510 N   0  0  0  0  0  0  0  0  0  0  0  0
  -14.3580   -1.6940   -0.7530 C   0  0  0  0  0  0  0  0  0  0  0  0
  -15.0390   -0.7180   -0.0560 C   0  0  0  0  0  0  0  0  0  0  0  0
  -16.3510   -0.4690   -0.3980 C   0  0  0  0  0  0  0  0  0  0  0  0
  -16.9430   -1.2030   -1.4080 C   0  0  0  0  0  0  0  0  0  0  0  0
  -18.3840   -0.9560   -1.8060 C   0  0  0  0  0  0  0  0  0  0  0  0
  -16.2510   -2.1690   -2.1000 C   0  0  0  0  0  0  0  0  0  0  0  0
  -14.9490   -2.4160   -1.7590 C   0  0  0  0  0  0  0  0  0  0  0  0
  -11.9050   -1.5730   -1.3540 C   0  0  0  0  0  0  0  0  0  0  0  0
  -10.5280   -1.9050   -1.0240 N   0  0  0  0  0  0  0  0  0  0  0  0
   -9.4550   -1.4720   -1.9190 C   0  0  0  0  0  0  0  0  0  0  0  0
   -9.2820   -2.3940   -3.1270 C   0  0  0  0  0  0  0  0  0  0  0  0
   -7.8170   -2.5500   -3.5360 C   0  0  0  0  0  0  0  0  0  0  0  0
   -6.9720   -3.3210   -2.7550 C   0  0  0  0  0  0  0  0  0  0  0  0
   -5.6390   -3.4770   -3.1110 C   0  0  0  0  0  0  0  0  0  0  0  0
   -5.1940   -2.8390   -4.2640 C   0  0  0  0  0  0  0  0  0  0  0  0
   -6.0850   -2.0780   -5.0070 C   0  0  0  0  0  0  0  0  0  0  0  0
   -7.3470   -1.9600   -4.6270 N   0  0  0  0  0  0  0  0  0  0  0  0
  -12.1450   -0.9640   -2.3390 O   0  0  0  0  0  0  0  0  0  0  0  0
  -18.7610   -1.8760   -2.7390 F   0  0  0  0  0  0  0  0  0  0  0  0
  -18.4550    0.3250   -2.2750 F   0  0  0  0  0  0  0  0  0  0  0  0
  -19.1950   -1.1300   -0.7370 F   0  0  0  0  0  0  0  0  0  0  0  0
  -10.0453   -2.0069   -4.3181 C   0  0  0  0  0  0  0  0  0  0  0  0
   -9.8476   -3.8948   -2.8015 C   0  0  0  0  0  0  0  0  0  0  0  0
  -10.9871   -4.2370   -3.4678 C   0  0  0  0  0  0  0  0  0  0  0  0
  -10.9887   -4.6095   -4.4138 C   0  0  0  0  0  0  0  0  0  0  0  0
  -12.5574   -5.5622   -5.1464 Cl  0  0  0  0  0  0  0  0  0  0  0  0
  1  2  2  0
  2  3  1  0
  2 16  1  0
  3  4  1  0
  3  6  2  0
  4  5  1  0
  6  7  1  0
  7 15  1  0
  7  8  1  0
 11 12  1  0
 12 28  1  0
 12 27  1  0
 12 26  1  0
 15 16  1  0
 15 25  2  0
 16 17  1  0
 17 18  1  0
 18 19  1  0
 18 29  1  0
 18 30  1  0
 30 31  1  0
 31 32  2  3
 32 33  1  0
  8  9  2  0
  9 10  1  0
 10 11  2  0
 11 13  1  0
 13 14  2  0
 14  8  1  0
 19 20  2  0
 20 21  1  0
 21 22  2  0
 22 23  1  0
 23 24  2  0
 24 19  1  0
M  END

$$$$
No_417-gen_results_new/Mpro_new_generate_500/2024-01-19-21-58-56/
     RDKit          3D

 32 34  0  0  0  0  0  0  0  0999 V2000
   -9.1300   -2.9100    0.4520 O   0  0  0  0  0  0  0  0  0  0  0  0
  -10.2490   -2.6420    0.1800 C   0  0  0  0  0  0  0  0  0  0  0  0
  -11.3800   -3.0650    1.0860 C   0  0  0  0  0  0  0  0  0  0  0  0
  -11.2000   -3.8390    2.3880 C   0  0  0  0  0  0  0  0  0  0  0  0
  -10.9900   -5.0690    2.3420 N   0  0  0  0  0  0  0  0  0  0  0  0
  -12.7310   -2.7290    0.7330 N   0  0  0  0  0  0  0  0  0  0  0  0
  -12.9960   -1.9940   -0.4510 N   0  0  0  0  0  0  0  0  0  0  0  0
  -14.3580   -1.6940   -0.7530 C   0  0  0  0  0  0  0  0  0  0  0  0
  -15.0390   -0.7180   -0.0560 C   0  0  0  0  0  0  0  0  0  0  0  0
  -16.3510   -0.4690   -0.3980 C   0  0  0  0  0  0  0  0  0  0  0  0
  -16.9430   -1.2030   -1.4080 C   0  0  0  0  0  0  0  0  0  0  0  0
  -18.3840   -0.9560   -1.8060 C   0  0  0  0  0  0  0  0  0  0  0  0
  -16.2510   -2.1690   -2.1000 C   0  0  0  0  0  0  0  0  0  0  0  0
  -14.9490   -2.4160   -1.7590 C   0  0  0  0  0  0  0  0  0  0  0  0
  -11.9050   -1.5730   -1.3540 C   0  0  0  0  0  0  0  0  0  0  0  0
  -10.5280   -1.9050   -1.0240 N   0  0  0  0  0  0  0  0  0  0  0  0
   -9.4550   -1.4720   -1.9190 C   0  0  0  0  0  0  0  0  0  0  0  0
   -9.2820   -2.3940   -3.1270 C   0  0  0  0  0  0  0  0  0  0  0  0
   -7.8170   -2.5500   -3.5360 C   0  0  0  0  0  0  0  0  0  0  0  0
   -6.9720   -3.3210   -2.7550 C   0  0  0  0  0  0  0  0  0  0  0  0
   -5.6390   -3.4770   -3.1110 C   0  0  0  0  0  0  0  0  0  0  0  0
   -5.1940   -2.8390   -4.2640 C   0  0  0  0  0  0  0  0  0  0  0  0
   -6.0850   -2.0780   -5.0070 C   0  0  0  0  0  0  0  0  0  0  0  0
   -7.3470   -1.9600   -4.6270 N   0  0  0  0  0  0  0  0  0  0  0  0
  -12.1450   -0.9640   -2.3390 O   0  0  0  0  0  0  0  0  0  0  0  0
  -18.7610   -1.8760   -2.7390 F   0  0  0  0  0  0  0  0  0  0  0  0
  -18.4550    0.3250   -2.2750 F   0  0  0  0  0  0  0  0  0  0  0  0
  -19.1950   -1.1300   -0.7370 F   0  0  0  0  0  0  0  0  0  0  0  0
   -9.6560   -3.6380   -2.7665 F   0  0  0  0  0  0  0  0  0  0  0  0
  -10.2391   -1.8174   -4.5603 S   0  0  0  0  0  0  0  0  0  0  0  0
  -10.3373   -0.3061   -4.7485 C   0  0  0  0  0  0  0  0  0  0  0  0
  -10.8449   -2.6943   -5.5169 O   0  0  0  0  0  0  0  0  0  0  0  0
  1  2  2  0
  2  3  1  0
  2 16  1  0
  3  4  1  0
  3  6  2  0
  4  5  1  0
  6  7  1  0
  7 15  1  0
  7  8  1  0
 11 12  1  0
 12 28  1  0
 12 27  1  0
 12 26  1  0
 15 16  1  0
 15 25  2  0
 16 17  1  0
 17 18  1  0
 18 19  1  0
 18 29  1  0
 18 30  1  0
 30 31  1  0
 30 32  2  0
  8  9  2  0
  9 10  1  0
 10 11  2  0
 11 13  1  0
 13 14  2  0
 14  8  1  0
 19 20  2  0
 20 21  1  0
 21 22  2  0
 22 23  1  0
 23 24  2  0
 24 19  1  0
M  END

$$$$
No_418-gen_results_new/Mpro_new_generate_500/2024-01-19-21-58-56/
     RDKit          3D

 35 37  0  0  0  0  0  0  0  0999 V2000
   -9.1300   -2.9100    0.4520 O   0  0  0  0  0  0  0  0  0  0  0  0
  -10.2490   -2.6420    0.1800 C   0  0  0  0  0  0  0  0  0  0  0  0
  -11.3800   -3.0650    1.0860 C   0  0  0  0  0  0  0  0  0  0  0  0
  -11.2000   -3.8390    2.3880 C   0  0  0  0  0  0  0  0  0  0  0  0
  -10.9900   -5.0690    2.3420 N   0  0  0  0  0  0  0  0  0  0  0  0
  -12.7310   -2.7290    0.7330 N   0  0  0  0  0  0  0  0  0  0  0  0
  -12.9960   -1.9940   -0.4510 N   0  0  0  0  0  0  0  0  0  0  0  0
  -14.3580   -1.6940   -0.7530 C   0  0  0  0  0  0  0  0  0  0  0  0
  -15.0390   -0.7180   -0.0560 C   0  0  0  0  0  0  0  0  0  0  0  0
  -16.3510   -0.4690   -0.3980 C   0  0  0  0  0  0  0  0  0  0  0  0
  -16.9430   -1.2030   -1.4080 C   0  0  0  0  0  0  0  0  0  0  0  0
  -18.3840   -0.9560   -1.8060 C   0  0  0  0  0  0  0  0  0  0  0  0
  -16.2510   -2.1690   -2.1000 C   0  0  0  0  0  0  0  0  0  0  0  0
  -14.9490   -2.4160   -1.7590 C   0  0  0  0  0  0  0  0  0  0  0  0
  -11.9050   -1.5730   -1.3540 C   0  0  0  0  0  0  0  0  0  0  0  0
  -10.5280   -1.9050   -1.0240 N   0  0  0  0  0  0  0  0  0  0  0  0
   -9.4550   -1.4720   -1.9190 C   0  0  0  0  0  0  0  0  0  0  0  0
   -9.2820   -2.3940   -3.1270 C   0  0  0  0  0  0  0  0  0  0  0  0
   -7.8170   -2.5500   -3.5360 C   0  0  0  0  0  0  0  0  0  0  0  0
   -6.9720   -3.3210   -2.7550 C   0  0  0  0  0  0  0  0  0  0  0  0
   -5.6390   -3.4770   -3.1110 C   0  0  0  0  0  0  0  0  0  0  0  0
   -5.1940   -2.8390   -4.2640 C   0  0  0  0  0  0  0  0  0  0  0  0
   -6.0850   -2.0780   -5.0070 C   0  0  0  0  0  0  0  0  0  0  0  0
   -7.3470   -1.9600   -4.6270 N   0  0  0  0  0  0  0  0  0  0  0  0
  -12.1450   -0.9640   -2.3390 O   0  0  0  0  0  0  0  0  0  0  0  0
  -18.7610   -1.8760   -2.7390 F   0  0  0  0  0  0  0  0  0  0  0  0
  -18.4550    0.3250   -2.2750 F   0  0  0  0  0  0  0  0  0  0  0  0
  -19.1950   -1.1300   -0.7370 F   0  0  0  0  0  0  0  0  0  0  0  0
   -9.7920   -3.7475   -2.8656 C   0  0  0  0  0  0  0  0  0  0  0  0
  -10.0268   -1.9037   -4.2201 F   0  0  0  0  0  0  0  0  0  0  0  0
  -10.9887   -4.2266   -3.7265 C   0  0  0  0  0  0  0  0  0  0  0  0
  -11.8073   -4.7514   -4.2326 C   0  0  0  0  0  0  0  0  0  0  0  0
   -9.3590   -4.5675   -2.0683 F   0  0  0  0  0  0  0  0  0  0  0  0
   -9.6102   -4.9490   -2.9277 C   0  0  0  0  0  0  0  0  0  0  0  0
   -9.8255   -6.0560   -2.1575 C   0  0  0  0  0  0  0  0  0  0  0  0
  1  2  2  0
  2  3  1  0
  2 16  1  0
  3  4  1  0
  3  6  2  0
  4  5  1  0
  6  7  1  0
  7 15  1  0
  7  8  1  0
 11 12  1  0
 12 28  1  0
 12 27  1  0
 12 26  1  0
 15 16  1  0
 15 25  2  0
 16 17  1  0
 17 18  1  0
 18 19  1  0
 18 29  1  0
 18 30  1  0
 29 31  1  0
 31 32  3  0
 29 33  1  0
 29 34  1  0
 34 35  1  0
  8  9  2  0
  9 10  1  0
 10 11  2  0
 11 13  1  0
 13 14  2  0
 14  8  1  0
 19 20  2  0
 20 21  1  0
 21 22  2  0
 22 23  1  0
 23 24  2  0
 24 19  1  0
M  END

$$$$
No_419-gen_results_new/Mpro_new_generate_500/2024-01-19-21-58-56/
     RDKit          3D

 32 34  0  0  0  0  0  0  0  0999 V2000
   -9.1300   -2.9100    0.4520 O   0  0  0  0  0  0  0  0  0  0  0  0
  -10.2490   -2.6420    0.1800 C   0  0  0  0  0  0  0  0  0  0  0  0
  -11.3800   -3.0650    1.0860 C   0  0  0  0  0  0  0  0  0  0  0  0
  -11.2000   -3.8390    2.3880 C   0  0  0  0  0  0  0  0  0  0  0  0
  -10.9900   -5.0690    2.3420 N   0  0  0  0  0  0  0  0  0  0  0  0
  -12.7310   -2.7290    0.7330 N   0  0  0  0  0  0  0  0  0  0  0  0
  -12.9960   -1.9940   -0.4510 N   0  0  0  0  0  0  0  0  0  0  0  0
  -14.3580   -1.6940   -0.7530 C   0  0  0  0  0  0  0  0  0  0  0  0
  -15.0390   -0.7180   -0.0560 C   0  0  0  0  0  0  0  0  0  0  0  0
  -16.3510   -0.4690   -0.3980 C   0  0  0  0  0  0  0  0  0  0  0  0
  -16.9430   -1.2030   -1.4080 C   0  0  0  0  0  0  0  0  0  0  0  0
  -18.3840   -0.9560   -1.8060 C   0  0  0  0  0  0  0  0  0  0  0  0
  -16.2510   -2.1690   -2.1000 C   0  0  0  0  0  0  0  0  0  0  0  0
  -14.9490   -2.4160   -1.7590 C   0  0  0  0  0  0  0  0  0  0  0  0
  -11.9050   -1.5730   -1.3540 C   0  0  0  0  0  0  0  0  0  0  0  0
  -10.5280   -1.9050   -1.0240 N   0  0  0  0  0  0  0  0  0  0  0  0
   -9.4550   -1.4720   -1.9190 C   0  0  0  0  0  0  0  0  0  0  0  0
   -9.2820   -2.3940   -3.1270 C   0  0  0  0  0  0  0  0  0  0  0  0
   -7.8170   -2.5500   -3.5360 C   0  0  0  0  0  0  0  0  0  0  0  0
   -6.9720   -3.3210   -2.7550 C   0  0  0  0  0  0  0  0  0  0  0  0
   -5.6390   -3.4770   -3.1110 C   0  0  0  0  0  0  0  0  0  0  0  0
   -5.1940   -2.8390   -4.2640 C   0  0  0  0  0  0  0  0  0  0  0  0
   -6.0850   -2.0780   -5.0070 C   0  0  0  0  0  0  0  0  0  0  0  0
   -7.3470   -1.9600   -4.6270 N   0  0  0  0  0  0  0  0  0  0  0  0
  -12.1450   -0.9640   -2.3390 O   0  0  0  0  0  0  0  0  0  0  0  0
  -18.7610   -1.8760   -2.7390 F   0  0  0  0  0  0  0  0  0  0  0  0
  -18.4550    0.3250   -2.2750 F   0  0  0  0  0  0  0  0  0  0  0  0
  -19.1950   -1.1300   -0.7370 F   0  0  0  0  0  0  0  0  0  0  0  0
  -10.0453   -2.0069   -4.3181 C   0  0  0  0  0  0  0  0  0  0  0  0
   -9.8476   -3.8948   -2.8015 C   0  0  0  0  0  0  0  0  0  0  0  0
   -9.2607   -4.5187   -1.7349 F   0  0  0  0  0  0  0  0  0  0  0  0
  -10.6396   -4.6860   -3.6418 C   0  0  0  0  0  0  0  0  0  0  0  0
  1  2  2  0
  2  3  1  0
  2 16  1  0
  3  4  1  0
  3  6  2  0
  4  5  1  0
  6  7  1  0
  7 15  1  0
  7  8  1  0
 11 12  1  0
 12 28  1  0
 12 27  1  0
 12 26  1  0
 15 16  1  0
 15 25  2  0
 16 17  1  0
 17 18  1  0
 18 19  1  0
 18 29  1  0
 18 30  1  0
 30 31  1  0
 30 32  1  0
  8  9  2  0
  9 10  1  0
 10 11  2  0
 11 13  1  0
 13 14  2  0
 14  8  1  0
 19 20  2  0
 20 21  1  0
 21 22  2  0
 22 23  1  0
 23 24  2  0
 24 19  1  0
M  END

$$$$
No_420-gen_results_new/Mpro_new_generate_500/2024-01-19-21-58-56/
     RDKit          3D

 35 37  0  0  0  0  0  0  0  0999 V2000
   -9.1300   -2.9100    0.4520 O   0  0  0  0  0  0  0  0  0  0  0  0
  -10.2490   -2.6420    0.1800 C   0  0  0  0  0  0  0  0  0  0  0  0
  -11.3800   -3.0650    1.0860 C   0  0  0  0  0  0  0  0  0  0  0  0
  -11.2000   -3.8390    2.3880 C   0  0  0  0  0  0  0  0  0  0  0  0
  -10.9900   -5.0690    2.3420 N   0  0  0  0  0  0  0  0  0  0  0  0
  -12.7310   -2.7290    0.7330 N   0  0  0  0  0  0  0  0  0  0  0  0
  -12.9960   -1.9940   -0.4510 N   0  0  0  0  0  0  0  0  0  0  0  0
  -14.3580   -1.6940   -0.7530 C   0  0  0  0  0  0  0  0  0  0  0  0
  -15.0390   -0.7180   -0.0560 C   0  0  0  0  0  0  0  0  0  0  0  0
  -16.3510   -0.4690   -0.3980 C   0  0  0  0  0  0  0  0  0  0  0  0
  -16.9430   -1.2030   -1.4080 C   0  0  0  0  0  0  0  0  0  0  0  0
  -18.3840   -0.9560   -1.8060 C   0  0  0  0  0  0  0  0  0  0  0  0
  -16.2510   -2.1690   -2.1000 C   0  0  0  0  0  0  0  0  0  0  0  0
  -14.9490   -2.4160   -1.7590 C   0  0  0  0  0  0  0  0  0  0  0  0
  -11.9050   -1.5730   -1.3540 C   0  0  0  0  0  0  0  0  0  0  0  0
  -10.5280   -1.9050   -1.0240 N   0  0  0  0  0  0  0  0  0  0  0  0
   -9.4550   -1.4720   -1.9190 C   0  0  0  0  0  0  0  0  0  0  0  0
   -9.2820   -2.3940   -3.1270 C   0  0  0  0  0  0  0  0  0  0  0  0
   -7.8170   -2.5500   -3.5360 C   0  0  0  0  0  0  0  0  0  0  0  0
   -6.9720   -3.3210   -2.7550 C   0  0  0  0  0  0  0  0  0  0  0  0
   -5.6390   -3.4770   -3.1110 C   0  0  0  0  0  0  0  0  0  0  0  0
   -5.1940   -2.8390   -4.2640 C   0  0  0  0  0  0  0  0  0  0  0  0
   -6.0850   -2.0780   -5.0070 C   0  0  0  0  0  0  0  0  0  0  0  0
   -7.3470   -1.9600   -4.6270 N   0  0  0  0  0  0  0  0  0  0  0  0
  -12.1450   -0.9640   -2.3390 O   0  0  0  0  0  0  0  0  0  0  0  0
  -18.7610   -1.8760   -2.7390 F   0  0  0  0  0  0  0  0  0  0  0  0
  -18.4550    0.3250   -2.2750 F   0  0  0  0  0  0  0  0  0  0  0  0
  -19.1950   -1.1300   -0.7370 F   0  0  0  0  0  0  0  0  0  0  0  0
   -9.7920   -3.7475   -2.8656 C   0  0  0  0  0  0  0  0  0  0  0  0
  -10.0717   -1.8029   -4.3549 C   0  0  0  0  0  0  0  0  0  0  0  0
  -10.0419   -4.6597   -4.1091 C   0  0  0  0  0  0  0  0  0  0  0  0
   -9.4793   -5.8134   -3.8778 F   0  0  0  0  0  0  0  0  0  0  0  0
  -10.8776   -4.5883   -5.1221 C   0  0  0  0  0  0  0  0  0  0  0  0
  -11.2040   -5.6746   -5.8650 O   0  0  0  0  0  0  0  0  0  0  0  0
  -12.3688   -5.7193   -6.3834 C   0  0  0  0  0  0  0  0  0  0  0  0
  1  2  2  0
  2  3  1  0
  2 16  1  0
  3  4  1  0
  3  6  2  0
  4  5  1  0
  6  7  1  0
  7 15  1  0
  7  8  1  0
 11 12  1  0
 12 28  1  0
 12 27  1  0
 12 26  1  0
 15 16  1  0
 15 25  2  0
 16 17  1  0
 17 18  1  0
 18 19  1  0
 18 29  1  0
 18 30  1  0
 29 31  2  3
 31 32  1  0
 31 33  1  0
 33 34  1  0
 34 35  1  0
  8  9  2  0
  9 10  1  0
 10 11  2  0
 11 13  1  0
 13 14  2  0
 14  8  1  0
 19 20  2  0
 20 21  1  0
 21 22  2  0
 22 23  1  0
 23 24  2  0
 24 19  1  0
M  END

$$$$
No_421-gen_results_new/Mpro_new_generate_500/2024-01-19-21-58-56/
     RDKit          3D

 34 37  0  0  0  0  0  0  0  0999 V2000
   -9.1300   -2.9100    0.4520 O   0  0  0  0  0  0  0  0  0  0  0  0
  -10.2490   -2.6420    0.1800 C   0  0  0  0  0  0  0  0  0  0  0  0
  -11.3800   -3.0650    1.0860 C   0  0  0  0  0  0  0  0  0  0  0  0
  -11.2000   -3.8390    2.3880 C   0  0  0  0  0  0  0  0  0  0  0  0
  -10.9900   -5.0690    2.3420 N   0  0  0  0  0  0  0  0  0  0  0  0
  -12.7310   -2.7290    0.7330 N   0  0  0  0  0  0  0  0  0  0  0  0
  -12.9960   -1.9940   -0.4510 N   0  0  0  0  0  0  0  0  0  0  0  0
  -14.3580   -1.6940   -0.7530 C   0  0  0  0  0  0  0  0  0  0  0  0
  -15.0390   -0.7180   -0.0560 C   0  0  0  0  0  0  0  0  0  0  0  0
  -16.3510   -0.4690   -0.3980 C   0  0  0  0  0  0  0  0  0  0  0  0
  -16.9430   -1.2030   -1.4080 C   0  0  0  0  0  0  0  0  0  0  0  0
  -18.3840   -0.9560   -1.8060 C   0  0  0  0  0  0  0  0  0  0  0  0
  -16.2510   -2.1690   -2.1000 C   0  0  0  0  0  0  0  0  0  0  0  0
  -14.9490   -2.4160   -1.7590 C   0  0  0  0  0  0  0  0  0  0  0  0
  -11.9050   -1.5730   -1.3540 C   0  0  0  0  0  0  0  0  0  0  0  0
  -10.5280   -1.9050   -1.0240 N   0  0  0  0  0  0  0  0  0  0  0  0
   -9.4550   -1.4720   -1.9190 C   0  0  0  0  0  0  0  0  0  0  0  0
   -9.2820   -2.3940   -3.1270 C   0  0  0  0  0  0  0  0  0  0  0  0
   -7.8170   -2.5500   -3.5360 C   0  0  0  0  0  0  0  0  0  0  0  0
   -6.9720   -3.3210   -2.7550 C   0  0  0  0  0  0  0  0  0  0  0  0
   -5.6390   -3.4770   -3.1110 C   0  0  0  0  0  0  0  0  0  0  0  0
   -5.1940   -2.8390   -4.2640 C   0  0  0  0  0  0  0  0  0  0  0  0
   -6.0850   -2.0780   -5.0070 C   0  0  0  0  0  0  0  0  0  0  0  0
   -7.3470   -1.9600   -4.6270 N   0  0  0  0  0  0  0  0  0  0  0  0
  -12.1450   -0.9640   -2.3390 O   0  0  0  0  0  0  0  0  0  0  0  0
  -18.7610   -1.8760   -2.7390 F   0  0  0  0  0  0  0  0  0  0  0  0
  -18.4550    0.3250   -2.2750 F   0  0  0  0  0  0  0  0  0  0  0  0
  -19.1950   -1.1300   -0.7370 F   0  0  0  0  0  0  0  0  0  0  0  0
  -10.0453   -2.0069   -4.3181 C   0  0  0  0  0  0  0  0  0  0  0  0
   -9.8476   -3.8948   -2.8015 C   0  0  0  0  0  0  0  0  0  0  0  0
   -9.1680   -4.8526   -2.1325 C   0  0  0  0  0  0  0  0  0  0  0  0
  -11.1739   -4.2861   -3.1669 C   0  0  0  0  0  0  0  0  0  0  0  0
   -9.5167   -5.7844   -1.9555 C   0  0  0  0  0  0  0  0  0  0  0  0
  -11.0106   -5.6481   -2.6293 C   0  0  0  0  0  0  0  0  0  0  0  0
  1  2  2  0
  2  3  1  0
  2 16  1  0
  3  4  1  0
  3  6  2  0
  4  5  1  0
  6  7  1  0
  7 15  1  0
  7  8  1  0
 11 12  1  0
 12 28  1  0
 12 27  1  0
 12 26  1  0
 15 16  1  0
 15 25  2  0
 16 17  1  0
 17 18  1  0
 18 19  1  0
 18 29  1  0
 18 30  1  0
 30 31  2  0
 30 32  1  0
 31 33  1  0
 32 34  1  0
 33 34  2  0
  8  9  2  0
  9 10  1  0
 10 11  2  0
 11 13  1  0
 13 14  2  0
 14  8  1  0
 19 20  2  0
 20 21  1  0
 21 22  2  0
 22 23  1  0
 23 24  2  0
 24 19  1  0
M  END

$$$$
No_422-gen_results_new/Mpro_new_generate_500/2024-01-19-21-58-56/
     RDKit          3D

 35 38  0  0  0  0  0  0  0  0999 V2000
   -9.1300   -2.9100    0.4520 O   0  0  0  0  0  0  0  0  0  0  0  0
  -10.2490   -2.6420    0.1800 C   0  0  0  0  0  0  0  0  0  0  0  0
  -11.3800   -3.0650    1.0860 C   0  0  0  0  0  0  0  0  0  0  0  0
  -11.2000   -3.8390    2.3880 C   0  0  0  0  0  0  0  0  0  0  0  0
  -10.9900   -5.0690    2.3420 N   0  0  0  0  0  0  0  0  0  0  0  0
  -12.7310   -2.7290    0.7330 N   0  0  0  0  0  0  0  0  0  0  0  0
  -12.9960   -1.9940   -0.4510 N   0  0  0  0  0  0  0  0  0  0  0  0
  -14.3580   -1.6940   -0.7530 C   0  0  0  0  0  0  0  0  0  0  0  0
  -15.0390   -0.7180   -0.0560 C   0  0  0  0  0  0  0  0  0  0  0  0
  -16.3510   -0.4690   -0.3980 C   0  0  0  0  0  0  0  0  0  0  0  0
  -16.9430   -1.2030   -1.4080 C   0  0  0  0  0  0  0  0  0  0  0  0
  -18.3840   -0.9560   -1.8060 C   0  0  0  0  0  0  0  0  0  0  0  0
  -16.2510   -2.1690   -2.1000 C   0  0  0  0  0  0  0  0  0  0  0  0
  -14.9490   -2.4160   -1.7590 C   0  0  0  0  0  0  0  0  0  0  0  0
  -11.9050   -1.5730   -1.3540 C   0  0  0  0  0  0  0  0  0  0  0  0
  -10.5280   -1.9050   -1.0240 N   0  0  0  0  0  0  0  0  0  0  0  0
   -9.4550   -1.4720   -1.9190 C   0  0  0  0  0  0  0  0  0  0  0  0
   -9.2820   -2.3940   -3.1270 C   0  0  0  0  0  0  0  0  0  0  0  0
   -7.8170   -2.5500   -3.5360 C   0  0  0  0  0  0  0  0  0  0  0  0
   -6.9720   -3.3210   -2.7550 C   0  0  0  0  0  0  0  0  0  0  0  0
   -5.6390   -3.4770   -3.1110 C   0  0  0  0  0  0  0  0  0  0  0  0
   -5.1940   -2.8390   -4.2640 C   0  0  0  0  0  0  0  0  0  0  0  0
   -6.0850   -2.0780   -5.0070 C   0  0  0  0  0  0  0  0  0  0  0  0
   -7.3470   -1.9600   -4.6270 N   0  0  0  0  0  0  0  0  0  0  0  0
  -12.1450   -0.9640   -2.3390 O   0  0  0  0  0  0  0  0  0  0  0  0
  -18.7610   -1.8760   -2.7390 F   0  0  0  0  0  0  0  0  0  0  0  0
  -18.4550    0.3250   -2.2750 F   0  0  0  0  0  0  0  0  0  0  0  0
  -19.1950   -1.1300   -0.7370 F   0  0  0  0  0  0  0  0  0  0  0  0
   -9.7920   -3.7475   -2.8656 C   0  0  0  0  0  0  0  0  0  0  0  0
  -10.0717   -1.8029   -4.3549 C   0  0  0  0  0  0  0  0  0  0  0  0
  -10.8816   -4.2900   -3.6532 C   0  0  0  0  0  0  0  0  0  0  0  0
  -10.4719   -4.5023   -4.6401 C   0  0  0  0  0  0  0  0  0  0  0  0
  -10.6950   -3.0768   -5.1191 O   0  0  0  0  0  0  0  0  0  0  0  0
   -9.1770   -4.8456   -5.2391 C   0  0  0  0  0  0  0  0  0  0  0  0
   -9.0487   -6.3190   -4.9444 C   0  0  0  0  0  0  0  0  0  0  0  0
  1  2  2  0
  2  3  1  0
  2 16  1  0
  3  4  1  0
  3  6  2  0
  4  5  1  0
  6  7  1  0
  7 15  1  0
  7  8  1  0
 11 12  1  0
 12 28  1  0
 12 27  1  0
 12 26  1  0
 15 16  1  0
 15 25  2  0
 16 17  1  0
 17 18  1  0
 18 19  1  0
 18 29  1  0
 18 30  1  0
 29 31  1  0
 31 32  1  0
 30 33  1  0
 32 33  1  0
 32 34  1  0
 34 35  1  0
  8  9  2  0
  9 10  1  0
 10 11  2  0
 11 13  1  0
 13 14  2  0
 14  8  1  0
 19 20  2  0
 20 21  1  0
 21 22  2  0
 22 23  1  0
 23 24  2  0
 24 19  1  0
M  END

$$$$
No_423-gen_results_new/Mpro_new_generate_500/2024-01-19-21-58-56/
     RDKit          3D

 35 38  0  0  0  0  0  0  0  0999 V2000
   -9.1300   -2.9100    0.4520 O   0  0  0  0  0  0  0  0  0  0  0  0
  -10.2490   -2.6420    0.1800 C   0  0  0  0  0  0  0  0  0  0  0  0
  -11.3800   -3.0650    1.0860 C   0  0  0  0  0  0  0  0  0  0  0  0
  -11.2000   -3.8390    2.3880 C   0  0  0  0  0  0  0  0  0  0  0  0
  -10.9900   -5.0690    2.3420 N   0  0  0  0  0  0  0  0  0  0  0  0
  -12.7310   -2.7290    0.7330 N   0  0  0  0  0  0  0  0  0  0  0  0
  -12.9960   -1.9940   -0.4510 N   0  0  0  0  0  0  0  0  0  0  0  0
  -14.3580   -1.6940   -0.7530 C   0  0  0  0  0  0  0  0  0  0  0  0
  -15.0390   -0.7180   -0.0560 C   0  0  0  0  0  0  0  0  0  0  0  0
  -16.3510   -0.4690   -0.3980 C   0  0  0  0  0  0  0  0  0  0  0  0
  -16.9430   -1.2030   -1.4080 C   0  0  0  0  0  0  0  0  0  0  0  0
  -18.3840   -0.9560   -1.8060 C   0  0  0  0  0  0  0  0  0  0  0  0
  -16.2510   -2.1690   -2.1000 C   0  0  0  0  0  0  0  0  0  0  0  0
  -14.9490   -2.4160   -1.7590 C   0  0  0  0  0  0  0  0  0  0  0  0
  -11.9050   -1.5730   -1.3540 C   0  0  0  0  0  0  0  0  0  0  0  0
  -10.5280   -1.9050   -1.0240 N   0  0  0  0  0  0  0  0  0  0  0  0
   -9.4550   -1.4720   -1.9190 C   0  0  0  0  0  0  0  0  0  0  0  0
   -9.2820   -2.3940   -3.1270 C   0  0  0  0  0  0  0  0  0  0  0  0
   -7.8170   -2.5500   -3.5360 C   0  0  0  0  0  0  0  0  0  0  0  0
   -6.9720   -3.3210   -2.7550 C   0  0  0  0  0  0  0  0  0  0  0  0
   -5.6390   -3.4770   -3.1110 C   0  0  0  0  0  0  0  0  0  0  0  0
   -5.1940   -2.8390   -4.2640 C   0  0  0  0  0  0  0  0  0  0  0  0
   -6.0850   -2.0780   -5.0070 C   0  0  0  0  0  0  0  0  0  0  0  0
   -7.3470   -1.9600   -4.6270 N   0  0  0  0  0  0  0  0  0  0  0  0
  -12.1450   -0.9640   -2.3390 O   0  0  0  0  0  0  0  0  0  0  0  0
  -18.7610   -1.8760   -2.7390 F   0  0  0  0  0  0  0  0  0  0  0  0
  -18.4550    0.3250   -2.2750 F   0  0  0  0  0  0  0  0  0  0  0  0
  -19.1950   -1.1300   -0.7370 F   0  0  0  0  0  0  0  0  0  0  0  0
   -9.7920   -3.7475   -2.8656 C   0  0  0  0  0  0  0  0  0  0  0  0
  -10.1387   -2.0206   -4.2903 C   0  0  0  0  0  0  0  0  0  0  0  0
  -10.7383   -4.2958   -3.7467 C   0  0  0  0  0  0  0  0  0  0  0  0
  -11.7046   -5.3891   -3.5055 C   0  0  0  0  0  0  0  0  0  0  0  0
  -12.6739   -5.5887   -4.6058 C   0  0  0  0  0  0  0  0  0  0  0  0
  -12.6341   -4.8464   -5.7968 C   0  0  0  0  0  0  0  0  0  0  0  0
  -11.0657   -3.1207   -4.5352 C   0  0  0  0  0  0  0  0  0  0  0  0
  1  2  2  0
  2  3  1  0
  2 16  1  0
  3  4  1  0
  3  6  2  0
  4  5  1  0
  6  7  1  0
  7 15  1  0
  7  8  1  0
 11 12  1  0
 12 28  1  0
 12 27  1  0
 12 26  1  0
 15 16  1  0
 15 25  2  0
 16 17  1  0
 17 18  1  0
 18 19  1  0
 18 29  1  0
 18 30  1  0
 29 31  1  0
 31 32  1  0
 32 33  2  3
 33 34  1  0
 30 35  1  0
 31 35  1  0
  8  9  2  0
  9 10  1  0
 10 11  2  0
 11 13  1  0
 13 14  2  0
 14  8  1  0
 19 20  2  0
 20 21  1  0
 21 22  2  0
 22 23  1  0
 23 24  2  0
 24 19  1  0
M  END

$$$$
No_424-gen_results_new/Mpro_new_generate_500/2024-01-19-21-58-56/
     RDKit          3D

 34 36  0  0  0  0  0  0  0  0999 V2000
   -9.1300   -2.9100    0.4520 O   0  0  0  0  0  0  0  0  0  0  0  0
  -10.2490   -2.6420    0.1800 C   0  0  0  0  0  0  0  0  0  0  0  0
  -11.3800   -3.0650    1.0860 C   0  0  0  0  0  0  0  0  0  0  0  0
  -11.2000   -3.8390    2.3880 C   0  0  0  0  0  0  0  0  0  0  0  0
  -10.9900   -5.0690    2.3420 N   0  0  0  0  0  0  0  0  0  0  0  0
  -12.7310   -2.7290    0.7330 N   0  0  0  0  0  0  0  0  0  0  0  0
  -12.9960   -1.9940   -0.4510 N   0  0  0  0  0  0  0  0  0  0  0  0
  -14.3580   -1.6940   -0.7530 C   0  0  0  0  0  0  0  0  0  0  0  0
  -15.0390   -0.7180   -0.0560 C   0  0  0  0  0  0  0  0  0  0  0  0
  -16.3510   -0.4690   -0.3980 C   0  0  0  0  0  0  0  0  0  0  0  0
  -16.9430   -1.2030   -1.4080 C   0  0  0  0  0  0  0  0  0  0  0  0
  -18.3840   -0.9560   -1.8060 C   0  0  0  0  0  0  0  0  0  0  0  0
  -16.2510   -2.1690   -2.1000 C   0  0  0  0  0  0  0  0  0  0  0  0
  -14.9490   -2.4160   -1.7590 C   0  0  0  0  0  0  0  0  0  0  0  0
  -11.9050   -1.5730   -1.3540 C   0  0  0  0  0  0  0  0  0  0  0  0
  -10.5280   -1.9050   -1.0240 N   0  0  0  0  0  0  0  0  0  0  0  0
   -9.4550   -1.4720   -1.9190 C   0  0  0  0  0  0  0  0  0  0  0  0
   -9.2820   -2.3940   -3.1270 C   0  0  0  0  0  0  0  0  0  0  0  0
   -7.8170   -2.5500   -3.5360 C   0  0  0  0  0  0  0  0  0  0  0  0
   -6.9720   -3.3210   -2.7550 C   0  0  0  0  0  0  0  0  0  0  0  0
   -5.6390   -3.4770   -3.1110 C   0  0  0  0  0  0  0  0  0  0  0  0
   -5.1940   -2.8390   -4.2640 C   0  0  0  0  0  0  0  0  0  0  0  0
   -6.0850   -2.0780   -5.0070 C   0  0  0  0  0  0  0  0  0  0  0  0
   -7.3470   -1.9600   -4.6270 N   0  0  0  0  0  0  0  0  0  0  0  0
  -12.1450   -0.9640   -2.3390 O   0  0  0  0  0  0  0  0  0  0  0  0
  -18.7610   -1.8760   -2.7390 F   0  0  0  0  0  0  0  0  0  0  0  0
  -18.4550    0.3250   -2.2750 F   0  0  0  0  0  0  0  0  0  0  0  0
  -19.1950   -1.1300   -0.7370 F   0  0  0  0  0  0  0  0  0  0  0  0
  -10.1467   -3.0903   -3.8357 C   0  0  0  0  0  0  0  0  0  0  0  0
  -10.1681   -2.5855   -3.6007 C   0  0  0  0  0  0  0  0  0  0  0  0
  -11.3308   -2.7701   -3.8546 C   0  0  0  0  0  0  0  0  0  0  0  0
  -10.2103   -1.2323   -4.6025 C   0  0  0  0  0  0  0  0  0  0  0  0
  -10.6135   -2.9635   -2.6098 O   0  0  0  0  0  0  0  0  0  0  0  0
  -10.8262   -4.4134   -2.4680 C   0  0  0  0  0  0  0  0  0  0  0  0
  1  2  2  0
  2  3  1  0
  2 16  1  0
  3  4  1  0
  3  6  2  0
  4  5  1  0
  6  7  1  0
  7 15  1  0
  7  8  1  0
 11 12  1  0
 12 28  1  0
 12 27  1  0
 12 26  1  0
 15 16  1  0
 15 25  2  0
 16 17  1  0
 17 18  1  0
 18 19  1  0
 18 29  1  0
 29 30  1  0
 29 31  1  0
 30 32  1  0
 30 33  1  0
 33 34  1  0
  8  9  2  0
  9 10  1  0
 10 11  2  0
 11 13  1  0
 13 14  2  0
 14  8  1  0
 19 20  2  0
 20 21  1  0
 21 22  2  0
 22 23  1  0
 23 24  2  0
 24 19  1  0
M  END

$$$$
No_425-gen_results_new/Mpro_new_generate_500/2024-01-19-21-58-56/
     RDKit          3D

 35 37  0  0  0  0  0  0  0  0999 V2000
   -9.1300   -2.9100    0.4520 O   0  0  0  0  0  0  0  0  0  0  0  0
  -10.2490   -2.6420    0.1800 C   0  0  0  0  0  0  0  0  0  0  0  0
  -11.3800   -3.0650    1.0860 C   0  0  0  0  0  0  0  0  0  0  0  0
  -11.2000   -3.8390    2.3880 C   0  0  0  0  0  0  0  0  0  0  0  0
  -10.9900   -5.0690    2.3420 N   0  0  0  0  0  0  0  0  0  0  0  0
  -12.7310   -2.7290    0.7330 N   0  0  0  0  0  0  0  0  0  0  0  0
  -12.9960   -1.9940   -0.4510 N   0  0  0  0  0  0  0  0  0  0  0  0
  -14.3580   -1.6940   -0.7530 C   0  0  0  0  0  0  0  0  0  0  0  0
  -15.0390   -0.7180   -0.0560 C   0  0  0  0  0  0  0  0  0  0  0  0
  -16.3510   -0.4690   -0.3980 C   0  0  0  0  0  0  0  0  0  0  0  0
  -16.9430   -1.2030   -1.4080 C   0  0  0  0  0  0  0  0  0  0  0  0
  -18.3840   -0.9560   -1.8060 C   0  0  0  0  0  0  0  0  0  0  0  0
  -16.2510   -2.1690   -2.1000 C   0  0  0  0  0  0  0  0  0  0  0  0
  -14.9490   -2.4160   -1.7590 C   0  0  0  0  0  0  0  0  0  0  0  0
  -11.9050   -1.5730   -1.3540 C   0  0  0  0  0  0  0  0  0  0  0  0
  -10.5280   -1.9050   -1.0240 N   0  0  0  0  0  0  0  0  0  0  0  0
   -9.4550   -1.4720   -1.9190 C   0  0  0  0  0  0  0  0  0  0  0  0
   -9.2820   -2.3940   -3.1270 C   0  0  0  0  0  0  0  0  0  0  0  0
   -7.8170   -2.5500   -3.5360 C   0  0  0  0  0  0  0  0  0  0  0  0
   -6.9720   -3.3210   -2.7550 C   0  0  0  0  0  0  0  0  0  0  0  0
   -5.6390   -3.4770   -3.1110 C   0  0  0  0  0  0  0  0  0  0  0  0
   -5.1940   -2.8390   -4.2640 C   0  0  0  0  0  0  0  0  0  0  0  0
   -6.0850   -2.0780   -5.0070 C   0  0  0  0  0  0  0  0  0  0  0  0
   -7.3470   -1.9600   -4.6270 N   0  0  0  0  0  0  0  0  0  0  0  0
  -12.1450   -0.9640   -2.3390 O   0  0  0  0  0  0  0  0  0  0  0  0
  -18.7610   -1.8760   -2.7390 F   0  0  0  0  0  0  0  0  0  0  0  0
  -18.4550    0.3250   -2.2750 F   0  0  0  0  0  0  0  0  0  0  0  0
  -19.1950   -1.1300   -0.7370 F   0  0  0  0  0  0  0  0  0  0  0  0
  -10.0453   -2.0069   -4.3181 C   0  0  0  0  0  0  0  0  0  0  0  0
   -9.8903   -3.8143   -2.9484 C   0  0  0  0  0  0  0  0  0  0  0  0
   -9.4210   -4.7070   -2.0558 C   0  0  0  0  0  0  0  0  0  0  0  0
  -10.5875   -4.4505   -3.6410 O   0  0  0  0  0  0  0  0  0  0  0  0
  -10.1712   -5.1190   -0.9648 C   0  0  0  0  0  0  0  0  0  0  0  0
   -8.8192   -6.0600   -2.5505 C   0  0  0  0  0  0  0  0  0  0  0  0
  -11.3098   -4.4631   -0.6555 F   0  0  0  0  0  0  0  0  0  0  0  0
  1  2  2  0
  2  3  1  0
  2 16  1  0
  3  4  1  0
  3  6  2  0
  4  5  1  0
  6  7  1  0
  7 15  1  0
  7  8  1  0
 11 12  1  0
 12 28  1  0
 12 27  1  0
 12 26  1  0
 15 16  1  0
 15 25  2  0
 16 17  1  0
 17 18  1  0
 18 19  1  0
 18 29  1  0
 18 30  1  0
 30 31  1  0
 30 32  2  0
 31 33  2  3
 31 34  1  0
 33 35  1  0
  8  9  2  0
  9 10  1  0
 10 11  2  0
 11 13  1  0
 13 14  2  0
 14  8  1  0
 19 20  2  0
 20 21  1  0
 21 22  2  0
 22 23  1  0
 23 24  2  0
 24 19  1  0
M  END

$$$$
No_426-gen_results_new/Mpro_new_generate_500/2024-01-19-21-58-56/
     RDKit          3D

 34 37  0  0  0  0  0  0  0  0999 V2000
   -9.1300   -2.9100    0.4520 O   0  0  0  0  0  0  0  0  0  0  0  0
  -10.2490   -2.6420    0.1800 C   0  0  0  0  0  0  0  0  0  0  0  0
  -11.3800   -3.0650    1.0860 C   0  0  0  0  0  0  0  0  0  0  0  0
  -11.2000   -3.8390    2.3880 C   0  0  0  0  0  0  0  0  0  0  0  0
  -10.9900   -5.0690    2.3420 N   0  0  0  0  0  0  0  0  0  0  0  0
  -12.7310   -2.7290    0.7330 N   0  0  0  0  0  0  0  0  0  0  0  0
  -12.9960   -1.9940   -0.4510 N   0  0  0  0  0  0  0  0  0  0  0  0
  -14.3580   -1.6940   -0.7530 C   0  0  0  0  0  0  0  0  0  0  0  0
  -15.0390   -0.7180   -0.0560 C   0  0  0  0  0  0  0  0  0  0  0  0
  -16.3510   -0.4690   -0.3980 C   0  0  0  0  0  0  0  0  0  0  0  0
  -16.9430   -1.2030   -1.4080 C   0  0  0  0  0  0  0  0  0  0  0  0
  -18.3840   -0.9560   -1.8060 C   0  0  0  0  0  0  0  0  0  0  0  0
  -16.2510   -2.1690   -2.1000 C   0  0  0  0  0  0  0  0  0  0  0  0
  -14.9490   -2.4160   -1.7590 C   0  0  0  0  0  0  0  0  0  0  0  0
  -11.9050   -1.5730   -1.3540 C   0  0  0  0  0  0  0  0  0  0  0  0
  -10.5280   -1.9050   -1.0240 N   0  0  0  0  0  0  0  0  0  0  0  0
   -9.4550   -1.4720   -1.9190 C   0  0  0  0  0  0  0  0  0  0  0  0
   -9.2820   -2.3940   -3.1270 C   0  0  0  0  0  0  0  0  0  0  0  0
   -7.8170   -2.5500   -3.5360 C   0  0  0  0  0  0  0  0  0  0  0  0
   -6.9720   -3.3210   -2.7550 C   0  0  0  0  0  0  0  0  0  0  0  0
   -5.6390   -3.4770   -3.1110 C   0  0  0  0  0  0  0  0  0  0  0  0
   -5.1940   -2.8390   -4.2640 C   0  0  0  0  0  0  0  0  0  0  0  0
   -6.0850   -2.0780   -5.0070 C   0  0  0  0  0  0  0  0  0  0  0  0
   -7.3470   -1.9600   -4.6270 N   0  0  0  0  0  0  0  0  0  0  0  0
  -12.1450   -0.9640   -2.3390 O   0  0  0  0  0  0  0  0  0  0  0  0
  -18.7610   -1.8760   -2.7390 F   0  0  0  0  0  0  0  0  0  0  0  0
  -18.4550    0.3250   -2.2750 F   0  0  0  0  0  0  0  0  0  0  0  0
  -19.1950   -1.1300   -0.7370 F   0  0  0  0  0  0  0  0  0  0  0  0
  -10.0453   -2.0069   -4.3181 C   0  0  0  0  0  0  0  0  0  0  0  0
   -9.8476   -3.8948   -2.8015 C   0  0  0  0  0  0  0  0  0  0  0  0
  -10.1714   -4.7331   -3.9309 C   0  0  0  0  0  0  0  0  0  0  0  0
  -10.6131   -4.1472   -4.9938 O   0  0  0  0  0  0  0  0  0  0  0  0
  -10.9143   -2.8234   -5.0615 C   0  0  0  0  0  0  0  0  0  0  0  0
  -12.2030   -2.6387   -4.5868 C   0  0  0  0  0  0  0  0  0  0  0  0
  1  2  2  0
  2  3  1  0
  2 16  1  0
  3  4  1  0
  3  6  2  0
  4  5  1  0
  6  7  1  0
  7 15  1  0
  7  8  1  0
 11 12  1  0
 12 28  1  0
 12 27  1  0
 12 26  1  0
 15 16  1  0
 15 25  2  0
 16 17  1  0
 17 18  1  0
 18 19  1  0
 18 29  1  0
 18 30  1  0
 30 31  2  0
 31 32  1  0
 29 33  2  0
 32 33  1  0
 33 34  1  0
  8  9  2  0
  9 10  1  0
 10 11  2  0
 11 13  1  0
 13 14  2  0
 14  8  1  0
 19 20  2  0
 20 21  1  0
 21 22  2  0
 22 23  1  0
 23 24  2  0
 24 19  1  0
M  END

$$$$
No_427-gen_results_new/Mpro_new_generate_500/2024-01-19-21-58-56/
     RDKit          3D

 35 38  0  0  0  0  0  0  0  0999 V2000
   -9.1300   -2.9100    0.4520 O   0  0  0  0  0  0  0  0  0  0  0  0
  -10.2490   -2.6420    0.1800 C   0  0  0  0  0  0  0  0  0  0  0  0
  -11.3800   -3.0650    1.0860 C   0  0  0  0  0  0  0  0  0  0  0  0
  -11.2000   -3.8390    2.3880 C   0  0  0  0  0  0  0  0  0  0  0  0
  -10.9900   -5.0690    2.3420 N   0  0  0  0  0  0  0  0  0  0  0  0
  -12.7310   -2.7290    0.7330 N   0  0  0  0  0  0  0  0  0  0  0  0
  -12.9960   -1.9940   -0.4510 N   0  0  0  0  0  0  0  0  0  0  0  0
  -14.3580   -1.6940   -0.7530 C   0  0  0  0  0  0  0  0  0  0  0  0
  -15.0390   -0.7180   -0.0560 C   0  0  0  0  0  0  0  0  0  0  0  0
  -16.3510   -0.4690   -0.3980 C   0  0  0  0  0  0  0  0  0  0  0  0
  -16.9430   -1.2030   -1.4080 C   0  0  0  0  0  0  0  0  0  0  0  0
  -18.3840   -0.9560   -1.8060 C   0  0  0  0  0  0  0  0  0  0  0  0
  -16.2510   -2.1690   -2.1000 C   0  0  0  0  0  0  0  0  0  0  0  0
  -14.9490   -2.4160   -1.7590 C   0  0  0  0  0  0  0  0  0  0  0  0
  -11.9050   -1.5730   -1.3540 C   0  0  0  0  0  0  0  0  0  0  0  0
  -10.5280   -1.9050   -1.0240 N   0  0  0  0  0  0  0  0  0  0  0  0
   -9.4550   -1.4720   -1.9190 C   0  0  0  0  0  0  0  0  0  0  0  0
   -9.2820   -2.3940   -3.1270 C   0  0  0  0  0  0  0  0  0  0  0  0
   -7.8170   -2.5500   -3.5360 C   0  0  0  0  0  0  0  0  0  0  0  0
   -6.9720   -3.3210   -2.7550 C   0  0  0  0  0  0  0  0  0  0  0  0
   -5.6390   -3.4770   -3.1110 C   0  0  0  0  0  0  0  0  0  0  0  0
   -5.1940   -2.8390   -4.2640 C   0  0  0  0  0  0  0  0  0  0  0  0
   -6.0850   -2.0780   -5.0070 C   0  0  0  0  0  0  0  0  0  0  0  0
   -7.3470   -1.9600   -4.6270 N   0  0  0  0  0  0  0  0  0  0  0  0
  -12.1450   -0.9640   -2.3390 O   0  0  0  0  0  0  0  0  0  0  0  0
  -18.7610   -1.8760   -2.7390 F   0  0  0  0  0  0  0  0  0  0  0  0
  -18.4550    0.3250   -2.2750 F   0  0  0  0  0  0  0  0  0  0  0  0
  -19.1950   -1.1300   -0.7370 F   0  0  0  0  0  0  0  0  0  0  0  0
   -9.7920   -3.7475   -2.8656 C   0  0  0  0  0  0  0  0  0  0  0  0
  -10.0717   -1.8029   -4.3549 C   0  0  0  0  0  0  0  0  0  0  0  0
  -10.8816   -4.2900   -3.6532 C   0  0  0  0  0  0  0  0  0  0  0  0
  -10.4719   -4.5023   -4.6401 C   0  0  0  0  0  0  0  0  0  0  0  0
  -10.7255   -3.0133   -5.2634 C   0  0  0  0  0  0  0  0  0  0  0  0
   -9.2518   -4.7313   -4.9821 F   0  0  0  0  0  0  0  0  0  0  0  0
  -11.3546   -5.2814   -5.4826 F   0  0  0  0  0  0  0  0  0  0  0  0
  1  2  2  0
  2  3  1  0
  2 16  1  0
  3  4  1  0
  3  6  2  0
  4  5  1  0
  6  7  1  0
  7 15  1  0
  7  8  1  0
 11 12  1  0
 12 28  1  0
 12 27  1  0
 12 26  1  0
 15 16  1  0
 15 25  2  0
 16 17  1  0
 17 18  1  0
 18 19  1  0
 18 29  1  0
 18 30  1  0
 29 31  1  0
 31 32  1  0
 30 33  1  0
 32 33  1  0
 32 34  1  0
 32 35  1  0
  8  9  2  0
  9 10  1  0
 10 11  2  0
 11 13  1  0
 13 14  2  0
 14  8  1  0
 19 20  2  0
 20 21  1  0
 21 22  2  0
 22 23  1  0
 23 24  2  0
 24 19  1  0
M  END

$$$$
No_428-gen_results_new/Mpro_new_generate_500/2024-01-19-21-58-56/
     RDKit          3D

 35 38  0  0  0  0  0  0  0  0999 V2000
   -9.1300   -2.9100    0.4520 O   0  0  0  0  0  0  0  0  0  0  0  0
  -10.2490   -2.6420    0.1800 C   0  0  0  0  0  0  0  0  0  0  0  0
  -11.3800   -3.0650    1.0860 C   0  0  0  0  0  0  0  0  0  0  0  0
  -11.2000   -3.8390    2.3880 C   0  0  0  0  0  0  0  0  0  0  0  0
  -10.9900   -5.0690    2.3420 N   0  0  0  0  0  0  0  0  0  0  0  0
  -12.7310   -2.7290    0.7330 N   0  0  0  0  0  0  0  0  0  0  0  0
  -12.9960   -1.9940   -0.4510 N   0  0  0  0  0  0  0  0  0  0  0  0
  -14.3580   -1.6940   -0.7530 C   0  0  0  0  0  0  0  0  0  0  0  0
  -15.0390   -0.7180   -0.0560 C   0  0  0  0  0  0  0  0  0  0  0  0
  -16.3510   -0.4690   -0.3980 C   0  0  0  0  0  0  0  0  0  0  0  0
  -16.9430   -1.2030   -1.4080 C   0  0  0  0  0  0  0  0  0  0  0  0
  -18.3840   -0.9560   -1.8060 C   0  0  0  0  0  0  0  0  0  0  0  0
  -16.2510   -2.1690   -2.1000 C   0  0  0  0  0  0  0  0  0  0  0  0
  -14.9490   -2.4160   -1.7590 C   0  0  0  0  0  0  0  0  0  0  0  0
  -11.9050   -1.5730   -1.3540 C   0  0  0  0  0  0  0  0  0  0  0  0
  -10.5280   -1.9050   -1.0240 N   0  0  0  0  0  0  0  0  0  0  0  0
   -9.4550   -1.4720   -1.9190 C   0  0  0  0  0  0  0  0  0  0  0  0
   -9.2820   -2.3940   -3.1270 C   0  0  0  0  0  0  0  0  0  0  0  0
   -7.8170   -2.5500   -3.5360 C   0  0  0  0  0  0  0  0  0  0  0  0
   -6.9720   -3.3210   -2.7550 C   0  0  0  0  0  0  0  0  0  0  0  0
   -5.6390   -3.4770   -3.1110 C   0  0  0  0  0  0  0  0  0  0  0  0
   -5.1940   -2.8390   -4.2640 C   0  0  0  0  0  0  0  0  0  0  0  0
   -6.0850   -2.0780   -5.0070 C   0  0  0  0  0  0  0  0  0  0  0  0
   -7.3470   -1.9600   -4.6270 N   0  0  0  0  0  0  0  0  0  0  0  0
  -12.1450   -0.9640   -2.3390 O   0  0  0  0  0  0  0  0  0  0  0  0
  -18.7610   -1.8760   -2.7390 F   0  0  0  0  0  0  0  0  0  0  0  0
  -18.4550    0.3250   -2.2750 F   0  0  0  0  0  0  0  0  0  0  0  0
  -19.1950   -1.1300   -0.7370 F   0  0  0  0  0  0  0  0  0  0  0  0
   -9.7920   -3.7475   -2.8656 C   0  0  0  0  0  0  0  0  0  0  0  0
  -10.1387   -2.0206   -4.2903 C   0  0  0  0  0  0  0  0  0  0  0  0
  -10.1257   -4.6809   -3.9732 C   0  0  0  0  0  0  0  0  0  0  0  0
  -10.4401   -5.9927   -3.6647 F   0  0  0  0  0  0  0  0  0  0  0  0
  -10.4520   -4.3838   -5.1485 O   0  0  0  0  0  0  0  0  0  0  0  0
  -10.8148   -2.8093   -5.1883 C   0  0  0  0  0  0  0  0  0  0  0  0
  -10.8004   -2.3711   -6.6963 C   0  0  0  0  0  0  0  0  0  0  0  0
  1  2  2  0
  2  3  1  0
  2 16  1  0
  3  4  1  0
  3  6  2  0
  4  5  1  0
  6  7  1  0
  7 15  1  0
  7  8  1  0
 11 12  1  0
 12 28  1  0
 12 27  1  0
 12 26  1  0
 15 16  1  0
 15 25  2  0
 16 17  1  0
 17 18  1  0
 18 19  1  0
 18 29  1  0
 18 30  1  0
 29 31  2  0
 31 32  1  0
 31 33  1  0
 30 34  1  0
 33 34  1  0
 34 35  1  0
  8  9  2  0
  9 10  1  0
 10 11  2  0
 11 13  1  0
 13 14  2  0
 14  8  1  0
 19 20  2  0
 20 21  1  0
 21 22  2  0
 22 23  1  0
 23 24  2  0
 24 19  1  0
M  END

$$$$
No_429-gen_results_new/Mpro_new_generate_500/2024-01-19-21-58-56/
     RDKit          3D

 35 37  0  0  0  0  0  0  0  0999 V2000
   -9.1300   -2.9100    0.4520 O   0  0  0  0  0  0  0  0  0  0  0  0
  -10.2490   -2.6420    0.1800 C   0  0  0  0  0  0  0  0  0  0  0  0
  -11.3800   -3.0650    1.0860 C   0  0  0  0  0  0  0  0  0  0  0  0
  -11.2000   -3.8390    2.3880 C   0  0  0  0  0  0  0  0  0  0  0  0
  -10.9900   -5.0690    2.3420 N   0  0  0  0  0  0  0  0  0  0  0  0
  -12.7310   -2.7290    0.7330 N   0  0  0  0  0  0  0  0  0  0  0  0
  -12.9960   -1.9940   -0.4510 N   0  0  0  0  0  0  0  0  0  0  0  0
  -14.3580   -1.6940   -0.7530 C   0  0  0  0  0  0  0  0  0  0  0  0
  -15.0390   -0.7180   -0.0560 C   0  0  0  0  0  0  0  0  0  0  0  0
  -16.3510   -0.4690   -0.3980 C   0  0  0  0  0  0  0  0  0  0  0  0
  -16.9430   -1.2030   -1.4080 C   0  0  0  0  0  0  0  0  0  0  0  0
  -18.3840   -0.9560   -1.8060 C   0  0  0  0  0  0  0  0  0  0  0  0
  -16.2510   -2.1690   -2.1000 C   0  0  0  0  0  0  0  0  0  0  0  0
  -14.9490   -2.4160   -1.7590 C   0  0  0  0  0  0  0  0  0  0  0  0
  -11.9050   -1.5730   -1.3540 C   0  0  0  0  0  0  0  0  0  0  0  0
  -10.5280   -1.9050   -1.0240 N   0  0  0  0  0  0  0  0  0  0  0  0
   -9.4550   -1.4720   -1.9190 C   0  0  0  0  0  0  0  0  0  0  0  0
   -9.2820   -2.3940   -3.1270 C   0  0  0  0  0  0  0  0  0  0  0  0
   -7.8170   -2.5500   -3.5360 C   0  0  0  0  0  0  0  0  0  0  0  0
   -6.9720   -3.3210   -2.7550 C   0  0  0  0  0  0  0  0  0  0  0  0
   -5.6390   -3.4770   -3.1110 C   0  0  0  0  0  0  0  0  0  0  0  0
   -5.1940   -2.8390   -4.2640 C   0  0  0  0  0  0  0  0  0  0  0  0
   -6.0850   -2.0780   -5.0070 C   0  0  0  0  0  0  0  0  0  0  0  0
   -7.3470   -1.9600   -4.6270 N   0  0  0  0  0  0  0  0  0  0  0  0
  -12.1450   -0.9640   -2.3390 O   0  0  0  0  0  0  0  0  0  0  0  0
  -18.7610   -1.8760   -2.7390 F   0  0  0  0  0  0  0  0  0  0  0  0
  -18.4550    0.3250   -2.2750 F   0  0  0  0  0  0  0  0  0  0  0  0
  -19.1950   -1.1300   -0.7370 F   0  0  0  0  0  0  0  0  0  0  0  0
   -9.7920   -3.7475   -2.8656 C   0  0  0  0  0  0  0  0  0  0  0  0
  -10.0268   -1.9037   -4.2201 F   0  0  0  0  0  0  0  0  0  0  0  0
   -9.7674   -4.7763   -4.0487 C   0  0  0  0  0  0  0  0  0  0  0  0
  -10.8597   -4.8318   -4.9247 C   0  0  0  0  0  0  0  0  0  0  0  0
  -12.2296   -4.8796   -4.5132 C   0  0  0  0  0  0  0  0  0  0  0  0
  -10.6921   -5.3458   -6.1822 O   0  0  0  0  0  0  0  0  0  0  0  0
  -11.8514   -5.5936   -6.9315 C   0  0  0  0  0  0  0  0  0  0  0  0
  1  2  2  0
  2  3  1  0
  2 16  1  0
  3  4  1  0
  3  6  2  0
  4  5  1  0
  6  7  1  0
  7 15  1  0
  7  8  1  0
 11 12  1  0
 12 28  1  0
 12 27  1  0
 12 26  1  0
 15 16  1  0
 15 25  2  0
 16 17  1  0
 17 18  1  0
 18 19  1  0
 18 29  1  0
 18 30  1  0
 29 31  1  0
 31 32  1  0
 32 33  1  0
 32 34  1  0
 34 35  1  0
  8  9  2  0
  9 10  1  0
 10 11  2  0
 11 13  1  0
 13 14  2  0
 14  8  1  0
 19 20  2  0
 20 21  1  0
 21 22  2  0
 22 23  1  0
 23 24  2  0
 24 19  1  0
M  END

$$$$
No_430-gen_results_new/Mpro_new_generate_500/2024-01-19-21-58-56/
     RDKit          3D

 34 37  0  0  0  0  0  0  0  0999 V2000
   -9.1300   -2.9100    0.4520 O   0  0  0  0  0  0  0  0  0  0  0  0
  -10.2490   -2.6420    0.1800 C   0  0  0  0  0  0  0  0  0  0  0  0
  -11.3800   -3.0650    1.0860 C   0  0  0  0  0  0  0  0  0  0  0  0
  -11.2000   -3.8390    2.3880 C   0  0  0  0  0  0  0  0  0  0  0  0
  -10.9900   -5.0690    2.3420 N   0  0  0  0  0  0  0  0  0  0  0  0
  -12.7310   -2.7290    0.7330 N   0  0  0  0  0  0  0  0  0  0  0  0
  -12.9960   -1.9940   -0.4510 N   0  0  0  0  0  0  0  0  0  0  0  0
  -14.3580   -1.6940   -0.7530 C   0  0  0  0  0  0  0  0  0  0  0  0
  -15.0390   -0.7180   -0.0560 C   0  0  0  0  0  0  0  0  0  0  0  0
  -16.3510   -0.4690   -0.3980 C   0  0  0  0  0  0  0  0  0  0  0  0
  -16.9430   -1.2030   -1.4080 C   0  0  0  0  0  0  0  0  0  0  0  0
  -18.3840   -0.9560   -1.8060 C   0  0  0  0  0  0  0  0  0  0  0  0
  -16.2510   -2.1690   -2.1000 C   0  0  0  0  0  0  0  0  0  0  0  0
  -14.9490   -2.4160   -1.7590 C   0  0  0  0  0  0  0  0  0  0  0  0
  -11.9050   -1.5730   -1.3540 C   0  0  0  0  0  0  0  0  0  0  0  0
  -10.5280   -1.9050   -1.0240 N   0  0  0  0  0  0  0  0  0  0  0  0
   -9.4550   -1.4720   -1.9190 C   0  0  0  0  0  0  0  0  0  0  0  0
   -9.2820   -2.3940   -3.1270 C   0  0  0  0  0  0  0  0  0  0  0  0
   -7.8170   -2.5500   -3.5360 C   0  0  0  0  0  0  0  0  0  0  0  0
   -6.9720   -3.3210   -2.7550 C   0  0  0  0  0  0  0  0  0  0  0  0
   -5.6390   -3.4770   -3.1110 C   0  0  0  0  0  0  0  0  0  0  0  0
   -5.1940   -2.8390   -4.2640 C   0  0  0  0  0  0  0  0  0  0  0  0
   -6.0850   -2.0780   -5.0070 C   0  0  0  0  0  0  0  0  0  0  0  0
   -7.3470   -1.9600   -4.6270 N   0  0  0  0  0  0  0  0  0  0  0  0
  -12.1450   -0.9640   -2.3390 O   0  0  0  0  0  0  0  0  0  0  0  0
  -18.7610   -1.8760   -2.7390 F   0  0  0  0  0  0  0  0  0  0  0  0
  -18.4550    0.3250   -2.2750 F   0  0  0  0  0  0  0  0  0  0  0  0
  -19.1950   -1.1300   -0.7370 F   0  0  0  0  0  0  0  0  0  0  0  0
   -9.7920   -3.7475   -2.8656 C   0  0  0  0  0  0  0  0  0  0  0  0
  -10.2798   -1.8938   -4.4763 S   0  0  0  0  0  0  0  0  0  0  0  0
  -10.1122   -3.4563   -5.3870 C   0  0  0  0  0  0  0  0  0  0  0  0
  -10.2855   -4.3908   -4.2199 C   0  0  0  0  0  0  0  0  0  0  0  0
   -9.7963   -0.7833   -5.3809 O   0  0  0  0  0  0  0  0  0  0  0  0
  -11.7381   -2.4682   -3.8750 O   0  0  0  0  0  0  0  0  0  0  0  0
  1  2  2  0
  2  3  1  0
  2 16  1  0
  3  4  1  0
  3  6  2  0
  4  5  1  0
  6  7  1  0
  7 15  1  0
  7  8  1  0
 11 12  1  0
 12 28  1  0
 12 27  1  0
 12 26  1  0
 15 16  1  0
 15 25  2  0
 16 17  1  0
 17 18  1  0
 18 19  1  0
 18 29  1  0
 18 30  1  0
 30 31  1  0
 29 32  1  0
 31 32  1  0
 30 33  2  0
 30 34  2  0
  8  9  2  0
  9 10  1  0
 10 11  2  0
 11 13  1  0
 13 14  2  0
 14  8  1  0
 19 20  2  0
 20 21  1  0
 21 22  2  0
 22 23  1  0
 23 24  2  0
 24 19  1  0
M  END

$$$$
No_431-gen_results_new/Mpro_new_generate_500/2024-01-19-21-58-56/
     RDKit          3D

 35 38  0  0  0  0  0  0  0  0999 V2000
   -9.1300   -2.9100    0.4520 O   0  0  0  0  0  0  0  0  0  0  0  0
  -10.2490   -2.6420    0.1800 C   0  0  0  0  0  0  0  0  0  0  0  0
  -11.3800   -3.0650    1.0860 C   0  0  0  0  0  0  0  0  0  0  0  0
  -11.2000   -3.8390    2.3880 C   0  0  0  0  0  0  0  0  0  0  0  0
  -10.9900   -5.0690    2.3420 N   0  0  0  0  0  0  0  0  0  0  0  0
  -12.7310   -2.7290    0.7330 N   0  0  0  0  0  0  0  0  0  0  0  0
  -12.9960   -1.9940   -0.4510 N   0  0  0  0  0  0  0  0  0  0  0  0
  -14.3580   -1.6940   -0.7530 C   0  0  0  0  0  0  0  0  0  0  0  0
  -15.0390   -0.7180   -0.0560 C   0  0  0  0  0  0  0  0  0  0  0  0
  -16.3510   -0.4690   -0.3980 C   0  0  0  0  0  0  0  0  0  0  0  0
  -16.9430   -1.2030   -1.4080 C   0  0  0  0  0  0  0  0  0  0  0  0
  -18.3840   -0.9560   -1.8060 C   0  0  0  0  0  0  0  0  0  0  0  0
  -16.2510   -2.1690   -2.1000 C   0  0  0  0  0  0  0  0  0  0  0  0
  -14.9490   -2.4160   -1.7590 C   0  0  0  0  0  0  0  0  0  0  0  0
  -11.9050   -1.5730   -1.3540 C   0  0  0  0  0  0  0  0  0  0  0  0
  -10.5280   -1.9050   -1.0240 N   0  0  0  0  0  0  0  0  0  0  0  0
   -9.4550   -1.4720   -1.9190 C   0  0  0  0  0  0  0  0  0  0  0  0
   -9.2820   -2.3940   -3.1270 C   0  0  0  0  0  0  0  0  0  0  0  0
   -7.8170   -2.5500   -3.5360 C   0  0  0  0  0  0  0  0  0  0  0  0
   -6.9720   -3.3210   -2.7550 C   0  0  0  0  0  0  0  0  0  0  0  0
   -5.6390   -3.4770   -3.1110 C   0  0  0  0  0  0  0  0  0  0  0  0
   -5.1940   -2.8390   -4.2640 C   0  0  0  0  0  0  0  0  0  0  0  0
   -6.0850   -2.0780   -5.0070 C   0  0  0  0  0  0  0  0  0  0  0  0
   -7.3470   -1.9600   -4.6270 N   0  0  0  0  0  0  0  0  0  0  0  0
  -12.1450   -0.9640   -2.3390 O   0  0  0  0  0  0  0  0  0  0  0  0
  -18.7610   -1.8760   -2.7390 F   0  0  0  0  0  0  0  0  0  0  0  0
  -18.4550    0.3250   -2.2750 F   0  0  0  0  0  0  0  0  0  0  0  0
  -19.1950   -1.1300   -0.7370 F   0  0  0  0  0  0  0  0  0  0  0  0
  -10.0453   -2.0069   -4.3181 C   0  0  0  0  0  0  0  0  0  0  0  0
   -9.8903   -3.8143   -2.9484 C   0  0  0  0  0  0  0  0  0  0  0  0
  -10.2391   -4.6422   -4.0501 C   0  0  0  0  0  0  0  0  0  0  0  0
  -10.7789   -3.2359   -4.8664 C   0  0  0  0  0  0  0  0  0  0  0  0
  -11.2410   -3.3269   -6.2348 C   0  0  0  0  0  0  0  0  0  0  0  0
  -11.8357   -4.6689   -6.5827 C   0  0  0  0  0  0  0  0  0  0  0  0
  -11.0675   -5.3047   -7.6634 C   0  0  0  0  0  0  0  0  0  0  0  0
  1  2  2  0
  2  3  1  0
  2 16  1  0
  3  4  1  0
  3  6  2  0
  4  5  1  0
  6  7  1  0
  7 15  1  0
  7  8  1  0
 11 12  1  0
 12 28  1  0
 12 27  1  0
 12 26  1  0
 15 16  1  0
 15 25  2  0
 16 17  1  0
 17 18  1  0
 18 19  1  0
 18 29  1  0
 18 30  1  0
 30 31  2  0
 29 32  1  0
 31 32  1  0
 32 33  1  0
 33 34  1  0
 34 35  1  0
  8  9  2  0
  9 10  1  0
 10 11  2  0
 11 13  1  0
 13 14  2  0
 14  8  1  0
 19 20  2  0
 20 21  1  0
 21 22  2  0
 22 23  1  0
 23 24  2  0
 24 19  1  0
M  END

$$$$
No_432-gen_results_new/Mpro_new_generate_500/2024-01-19-21-58-56/
     RDKit          3D

 34 37  0  0  0  0  0  0  0  0999 V2000
   -9.1300   -2.9100    0.4520 O   0  0  0  0  0  0  0  0  0  0  0  0
  -10.2490   -2.6420    0.1800 C   0  0  0  0  0  0  0  0  0  0  0  0
  -11.3800   -3.0650    1.0860 C   0  0  0  0  0  0  0  0  0  0  0  0
  -11.2000   -3.8390    2.3880 C   0  0  0  0  0  0  0  0  0  0  0  0
  -10.9900   -5.0690    2.3420 N   0  0  0  0  0  0  0  0  0  0  0  0
  -12.7310   -2.7290    0.7330 N   0  0  0  0  0  0  0  0  0  0  0  0
  -12.9960   -1.9940   -0.4510 N   0  0  0  0  0  0  0  0  0  0  0  0
  -14.3580   -1.6940   -0.7530 C   0  0  0  0  0  0  0  0  0  0  0  0
  -15.0390   -0.7180   -0.0560 C   0  0  0  0  0  0  0  0  0  0  0  0
  -16.3510   -0.4690   -0.3980 C   0  0  0  0  0  0  0  0  0  0  0  0
  -16.9430   -1.2030   -1.4080 C   0  0  0  0  0  0  0  0  0  0  0  0
  -18.3840   -0.9560   -1.8060 C   0  0  0  0  0  0  0  0  0  0  0  0
  -16.2510   -2.1690   -2.1000 C   0  0  0  0  0  0  0  0  0  0  0  0
  -14.9490   -2.4160   -1.7590 C   0  0  0  0  0  0  0  0  0  0  0  0
  -11.9050   -1.5730   -1.3540 C   0  0  0  0  0  0  0  0  0  0  0  0
  -10.5280   -1.9050   -1.0240 N   0  0  0  0  0  0  0  0  0  0  0  0
   -9.4550   -1.4720   -1.9190 C   0  0  0  0  0  0  0  0  0  0  0  0
   -9.2820   -2.3940   -3.1270 C   0  0  0  0  0  0  0  0  0  0  0  0
   -7.8170   -2.5500   -3.5360 C   0  0  0  0  0  0  0  0  0  0  0  0
   -6.9720   -3.3210   -2.7550 C   0  0  0  0  0  0  0  0  0  0  0  0
   -5.6390   -3.4770   -3.1110 C   0  0  0  0  0  0  0  0  0  0  0  0
   -5.1940   -2.8390   -4.2640 C   0  0  0  0  0  0  0  0  0  0  0  0
   -6.0850   -2.0780   -5.0070 C   0  0  0  0  0  0  0  0  0  0  0  0
   -7.3470   -1.9600   -4.6270 N   0  0  0  0  0  0  0  0  0  0  0  0
  -12.1450   -0.9640   -2.3390 O   0  0  0  0  0  0  0  0  0  0  0  0
  -18.7610   -1.8760   -2.7390 F   0  0  0  0  0  0  0  0  0  0  0  0
  -18.4550    0.3250   -2.2750 F   0  0  0  0  0  0  0  0  0  0  0  0
  -19.1950   -1.1300   -0.7370 F   0  0  0  0  0  0  0  0  0  0  0  0
  -10.0453   -2.0069   -4.3181 C   0  0  0  0  0  0  0  0  0  0  0  0
   -9.8903   -3.8143   -2.9484 C   0  0  0  0  0  0  0  0  0  0  0  0
  -10.2391   -4.6422   -4.0501 C   0  0  0  0  0  0  0  0  0  0  0  0
  -10.7472   -3.2601   -4.8115 O   0  0  0  0  0  0  0  0  0  0  0  0
  -10.3554   -0.9113   -4.6824 O   0  0  0  0  0  0  0  0  0  0  0  0
   -9.5798   -4.9757   -1.6489 Cl  0  0  0  0  0  0  0  0  0  0  0  0
  1  2  2  0
  2  3  1  0
  2 16  1  0
  3  4  1  0
  3  6  2  0
  4  5  1  0
  6  7  1  0
  7 15  1  0
  7  8  1  0
 11 12  1  0
 12 28  1  0
 12 27  1  0
 12 26  1  0
 15 16  1  0
 15 25  2  0
 16 17  1  0
 17 18  1  0
 18 19  1  0
 18 29  1  0
 18 30  1  0
 30 31  2  0
 29 32  1  0
 31 32  1  0
 29 33  2  0
 30 34  1  0
  8  9  2  0
  9 10  1  0
 10 11  2  0
 11 13  1  0
 13 14  2  0
 14  8  1  0
 19 20  2  0
 20 21  1  0
 21 22  2  0
 22 23  1  0
 23 24  2  0
 24 19  1  0
M  END

$$$$
No_433-gen_results_new/Mpro_new_generate_500/2024-01-19-21-58-56/
     RDKit          3D

 33 36  0  0  0  0  0  0  0  0999 V2000
   -9.1300   -2.9100    0.4520 O   0  0  0  0  0  0  0  0  0  0  0  0
  -10.2490   -2.6420    0.1800 C   0  0  0  0  0  0  0  0  0  0  0  0
  -11.3800   -3.0650    1.0860 C   0  0  0  0  0  0  0  0  0  0  0  0
  -11.2000   -3.8390    2.3880 C   0  0  0  0  0  0  0  0  0  0  0  0
  -10.9900   -5.0690    2.3420 N   0  0  0  0  0  0  0  0  0  0  0  0
  -12.7310   -2.7290    0.7330 N   0  0  0  0  0  0  0  0  0  0  0  0
  -12.9960   -1.9940   -0.4510 N   0  0  0  0  0  0  0  0  0  0  0  0
  -14.3580   -1.6940   -0.7530 C   0  0  0  0  0  0  0  0  0  0  0  0
  -15.0390   -0.7180   -0.0560 C   0  0  0  0  0  0  0  0  0  0  0  0
  -16.3510   -0.4690   -0.3980 C   0  0  0  0  0  0  0  0  0  0  0  0
  -16.9430   -1.2030   -1.4080 C   0  0  0  0  0  0  0  0  0  0  0  0
  -18.3840   -0.9560   -1.8060 C   0  0  0  0  0  0  0  0  0  0  0  0
  -16.2510   -2.1690   -2.1000 C   0  0  0  0  0  0  0  0  0  0  0  0
  -14.9490   -2.4160   -1.7590 C   0  0  0  0  0  0  0  0  0  0  0  0
  -11.9050   -1.5730   -1.3540 C   0  0  0  0  0  0  0  0  0  0  0  0
  -10.5280   -1.9050   -1.0240 N   0  0  0  0  0  0  0  0  0  0  0  0
   -9.4550   -1.4720   -1.9190 C   0  0  0  0  0  0  0  0  0  0  0  0
   -9.2820   -2.3940   -3.1270 C   0  0  0  0  0  0  0  0  0  0  0  0
   -7.8170   -2.5500   -3.5360 C   0  0  0  0  0  0  0  0  0  0  0  0
   -6.9720   -3.3210   -2.7550 C   0  0  0  0  0  0  0  0  0  0  0  0
   -5.6390   -3.4770   -3.1110 C   0  0  0  0  0  0  0  0  0  0  0  0
   -5.1940   -2.8390   -4.2640 C   0  0  0  0  0  0  0  0  0  0  0  0
   -6.0850   -2.0780   -5.0070 C   0  0  0  0  0  0  0  0  0  0  0  0
   -7.3470   -1.9600   -4.6270 N   0  0  0  0  0  0  0  0  0  0  0  0
  -12.1450   -0.9640   -2.3390 O   0  0  0  0  0  0  0  0  0  0  0  0
  -18.7610   -1.8760   -2.7390 F   0  0  0  0  0  0  0  0  0  0  0  0
  -18.4550    0.3250   -2.2750 F   0  0  0  0  0  0  0  0  0  0  0  0
  -19.1950   -1.1300   -0.7370 F   0  0  0  0  0  0  0  0  0  0  0  0
  -10.1467   -3.0903   -3.8357 C   0  0  0  0  0  0  0  0  0  0  0  0
  -10.1681   -2.5855   -3.6007 C   0  0  0  0  0  0  0  0  0  0  0  0
  -10.4499   -1.5957   -4.9129 C   0  0  0  0  0  0  0  0  0  0  0  0
  -10.6830   -1.8312   -2.9212 O   0  0  0  0  0  0  0  0  0  0  0  0
  -10.7099   -0.9741   -4.2012 C   0  0  0  0  0  0  0  0  0  0  0  0
  1  2  2  0
  2  3  1  0
  2 16  1  0
  3  4  1  0
  3  6  2  0
  4  5  1  0
  6  7  1  0
  7 15  1  0
  7  8  1  0
 11 12  1  0
 12 28  1  0
 12 27  1  0
 12 26  1  0
 15 16  1  0
 15 25  2  0
 16 17  1  0
 17 18  1  0
 18 19  1  0
 18 29  1  0
 29 30  1  0
 30 31  1  0
 30 32  1  0
 31 33  2  0
 32 33  1  0
  8  9  2  0
  9 10  1  0
 10 11  2  0
 11 13  1  0
 13 14  2  0
 14  8  1  0
 19 20  2  0
 20 21  1  0
 21 22  2  0
 22 23  1  0
 23 24  2  0
 24 19  1  0
M  END

$$$$
No_434-gen_results_new/Mpro_new_generate_500/2024-01-19-21-58-56/
     RDKit          3D

 33 35  0  0  0  0  0  0  0  0999 V2000
   -9.1300   -2.9100    0.4520 O   0  0  0  0  0  0  0  0  0  0  0  0
  -10.2490   -2.6420    0.1800 C   0  0  0  0  0  0  0  0  0  0  0  0
  -11.3800   -3.0650    1.0860 C   0  0  0  0  0  0  0  0  0  0  0  0
  -11.2000   -3.8390    2.3880 C   0  0  0  0  0  0  0  0  0  0  0  0
  -10.9900   -5.0690    2.3420 N   0  0  0  0  0  0  0  0  0  0  0  0
  -12.7310   -2.7290    0.7330 N   0  0  0  0  0  0  0  0  0  0  0  0
  -12.9960   -1.9940   -0.4510 N   0  0  0  0  0  0  0  0  0  0  0  0
  -14.3580   -1.6940   -0.7530 C   0  0  0  0  0  0  0  0  0  0  0  0
  -15.0390   -0.7180   -0.0560 C   0  0  0  0  0  0  0  0  0  0  0  0
  -16.3510   -0.4690   -0.3980 C   0  0  0  0  0  0  0  0  0  0  0  0
  -16.9430   -1.2030   -1.4080 C   0  0  0  0  0  0  0  0  0  0  0  0
  -18.3840   -0.9560   -1.8060 C   0  0  0  0  0  0  0  0  0  0  0  0
  -16.2510   -2.1690   -2.1000 C   0  0  0  0  0  0  0  0  0  0  0  0
  -14.9490   -2.4160   -1.7590 C   0  0  0  0  0  0  0  0  0  0  0  0
  -11.9050   -1.5730   -1.3540 C   0  0  0  0  0  0  0  0  0  0  0  0
  -10.5280   -1.9050   -1.0240 N   0  0  0  0  0  0  0  0  0  0  0  0
   -9.4550   -1.4720   -1.9190 C   0  0  0  0  0  0  0  0  0  0  0  0
   -9.2820   -2.3940   -3.1270 C   0  0  0  0  0  0  0  0  0  0  0  0
   -7.8170   -2.5500   -3.5360 C   0  0  0  0  0  0  0  0  0  0  0  0
   -6.9720   -3.3210   -2.7550 C   0  0  0  0  0  0  0  0  0  0  0  0
   -5.6390   -3.4770   -3.1110 C   0  0  0  0  0  0  0  0  0  0  0  0
   -5.1940   -2.8390   -4.2640 C   0  0  0  0  0  0  0  0  0  0  0  0
   -6.0850   -2.0780   -5.0070 C   0  0  0  0  0  0  0  0  0  0  0  0
   -7.3470   -1.9600   -4.6270 N   0  0  0  0  0  0  0  0  0  0  0  0
  -12.1450   -0.9640   -2.3390 O   0  0  0  0  0  0  0  0  0  0  0  0
  -18.7610   -1.8760   -2.7390 F   0  0  0  0  0  0  0  0  0  0  0  0
  -18.4550    0.3250   -2.2750 F   0  0  0  0  0  0  0  0  0  0  0  0
  -19.1950   -1.1300   -0.7370 F   0  0  0  0  0  0  0  0  0  0  0  0
   -9.7920   -3.7475   -2.8656 C   0  0  0  0  0  0  0  0  0  0  0  0
  -10.0268   -1.9037   -4.2201 F   0  0  0  0  0  0  0  0  0  0  0  0
  -10.9887   -4.2266   -3.7265 C   0  0  0  0  0  0  0  0  0  0  0  0
  -11.1957   -5.6188   -3.5588 C   0  0  0  0  0  0  0  0  0  0  0  0
  -11.9374   -3.5374   -3.8978 O   0  0  0  0  0  0  0  0  0  0  0  0
  1  2  2  0
  2  3  1  0
  2 16  1  0
  3  4  1  0
  3  6  2  0
  4  5  1  0
  6  7  1  0
  7 15  1  0
  7  8  1  0
 11 12  1  0
 12 28  1  0
 12 27  1  0
 12 26  1  0
 15 16  1  0
 15 25  2  0
 16 17  1  0
 17 18  1  0
 18 19  1  0
 18 29  1  0
 18 30  1  0
 29 31  1  0
 31 32  1  0
 31 33  2  0
  8  9  2  0
  9 10  1  0
 10 11  2  0
 11 13  1  0
 13 14  2  0
 14  8  1  0
 19 20  2  0
 20 21  1  0
 21 22  2  0
 22 23  1  0
 23 24  2  0
 24 19  1  0
M  END

$$$$
No_435-gen_results_new/Mpro_new_generate_500/2024-01-19-21-58-56/
     RDKit          3D

 33 36  0  0  0  0  0  0  0  0999 V2000
   -9.1300   -2.9100    0.4520 O   0  0  0  0  0  0  0  0  0  0  0  0
  -10.2490   -2.6420    0.1800 C   0  0  0  0  0  0  0  0  0  0  0  0
  -11.3800   -3.0650    1.0860 C   0  0  0  0  0  0  0  0  0  0  0  0
  -11.2000   -3.8390    2.3880 C   0  0  0  0  0  0  0  0  0  0  0  0
  -10.9900   -5.0690    2.3420 N   0  0  0  0  0  0  0  0  0  0  0  0
  -12.7310   -2.7290    0.7330 N   0  0  0  0  0  0  0  0  0  0  0  0
  -12.9960   -1.9940   -0.4510 N   0  0  0  0  0  0  0  0  0  0  0  0
  -14.3580   -1.6940   -0.7530 C   0  0  0  0  0  0  0  0  0  0  0  0
  -15.0390   -0.7180   -0.0560 C   0  0  0  0  0  0  0  0  0  0  0  0
  -16.3510   -0.4690   -0.3980 C   0  0  0  0  0  0  0  0  0  0  0  0
  -16.9430   -1.2030   -1.4080 C   0  0  0  0  0  0  0  0  0  0  0  0
  -18.3840   -0.9560   -1.8060 C   0  0  0  0  0  0  0  0  0  0  0  0
  -16.2510   -2.1690   -2.1000 C   0  0  0  0  0  0  0  0  0  0  0  0
  -14.9490   -2.4160   -1.7590 C   0  0  0  0  0  0  0  0  0  0  0  0
  -11.9050   -1.5730   -1.3540 C   0  0  0  0  0  0  0  0  0  0  0  0
  -10.5280   -1.9050   -1.0240 N   0  0  0  0  0  0  0  0  0  0  0  0
   -9.4550   -1.4720   -1.9190 C   0  0  0  0  0  0  0  0  0  0  0  0
   -9.2820   -2.3940   -3.1270 C   0  0  0  0  0  0  0  0  0  0  0  0
   -7.8170   -2.5500   -3.5360 C   0  0  0  0  0  0  0  0  0  0  0  0
   -6.9720   -3.3210   -2.7550 C   0  0  0  0  0  0  0  0  0  0  0  0
   -5.6390   -3.4770   -3.1110 C   0  0  0  0  0  0  0  0  0  0  0  0
   -5.1940   -2.8390   -4.2640 C   0  0  0  0  0  0  0  0  0  0  0  0
   -6.0850   -2.0780   -5.0070 C   0  0  0  0  0  0  0  0  0  0  0  0
   -7.3470   -1.9600   -4.6270 N   0  0  0  0  0  0  0  0  0  0  0  0
  -12.1450   -0.9640   -2.3390 O   0  0  0  0  0  0  0  0  0  0  0  0
  -18.7610   -1.8760   -2.7390 F   0  0  0  0  0  0  0  0  0  0  0  0
  -18.4550    0.3250   -2.2750 F   0  0  0  0  0  0  0  0  0  0  0  0
  -19.1950   -1.1300   -0.7370 F   0  0  0  0  0  0  0  0  0  0  0  0
  -10.0453   -2.0069   -4.3181 C   0  0  0  0  0  0  0  0  0  0  0  0
   -9.8903   -3.8143   -2.9484 C   0  0  0  0  0  0  0  0  0  0  0  0
   -9.4210   -4.7070   -2.0558 C   0  0  0  0  0  0  0  0  0  0  0  0
  -10.5989   -4.5002   -3.8521 C   0  0  0  0  0  0  0  0  0  0  0  0
  -11.1372   -3.3463   -4.6630 C   0  0  0  0  0  0  0  0  0  0  0  0
  1  2  2  0
  2  3  1  0
  2 16  1  0
  3  4  1  0
  3  6  2  0
  4  5  1  0
  6  7  1  0
  7 15  1  0
  7  8  1  0
 11 12  1  0
 12 28  1  0
 12 27  1  0
 12 26  1  0
 15 16  1  0
 15 25  2  0
 16 17  1  0
 17 18  1  0
 18 19  1  0
 18 29  1  0
 18 30  1  0
 30 31  1  0
 30 32  1  0
 29 33  2  0
 32 33  1  0
  8  9  2  0
  9 10  1  0
 10 11  2  0
 11 13  1  0
 13 14  2  0
 14  8  1  0
 19 20  2  0
 20 21  1  0
 21 22  2  0
 22 23  1  0
 23 24  2  0
 24 19  1  0
M  END

$$$$
No_436-gen_results_new/Mpro_new_generate_500/2024-01-19-21-58-56/
     RDKit          3D

 35 37  0  0  0  0  0  0  0  0999 V2000
   -9.1300   -2.9100    0.4520 O   0  0  0  0  0  0  0  0  0  0  0  0
  -10.2490   -2.6420    0.1800 C   0  0  0  0  0  0  0  0  0  0  0  0
  -11.3800   -3.0650    1.0860 C   0  0  0  0  0  0  0  0  0  0  0  0
  -11.2000   -3.8390    2.3880 C   0  0  0  0  0  0  0  0  0  0  0  0
  -10.9900   -5.0690    2.3420 N   0  0  0  0  0  0  0  0  0  0  0  0
  -12.7310   -2.7290    0.7330 N   0  0  0  0  0  0  0  0  0  0  0  0
  -12.9960   -1.9940   -0.4510 N   0  0  0  0  0  0  0  0  0  0  0  0
  -14.3580   -1.6940   -0.7530 C   0  0  0  0  0  0  0  0  0  0  0  0
  -15.0390   -0.7180   -0.0560 C   0  0  0  0  0  0  0  0  0  0  0  0
  -16.3510   -0.4690   -0.3980 C   0  0  0  0  0  0  0  0  0  0  0  0
  -16.9430   -1.2030   -1.4080 C   0  0  0  0  0  0  0  0  0  0  0  0
  -18.3840   -0.9560   -1.8060 C   0  0  0  0  0  0  0  0  0  0  0  0
  -16.2510   -2.1690   -2.1000 C   0  0  0  0  0  0  0  0  0  0  0  0
  -14.9490   -2.4160   -1.7590 C   0  0  0  0  0  0  0  0  0  0  0  0
  -11.9050   -1.5730   -1.3540 C   0  0  0  0  0  0  0  0  0  0  0  0
  -10.5280   -1.9050   -1.0240 N   0  0  0  0  0  0  0  0  0  0  0  0
   -9.4550   -1.4720   -1.9190 C   0  0  0  0  0  0  0  0  0  0  0  0
   -9.2820   -2.3940   -3.1270 C   0  0  0  0  0  0  0  0  0  0  0  0
   -7.8170   -2.5500   -3.5360 C   0  0  0  0  0  0  0  0  0  0  0  0
   -6.9720   -3.3210   -2.7550 C   0  0  0  0  0  0  0  0  0  0  0  0
   -5.6390   -3.4770   -3.1110 C   0  0  0  0  0  0  0  0  0  0  0  0
   -5.1940   -2.8390   -4.2640 C   0  0  0  0  0  0  0  0  0  0  0  0
   -6.0850   -2.0780   -5.0070 C   0  0  0  0  0  0  0  0  0  0  0  0
   -7.3470   -1.9600   -4.6270 N   0  0  0  0  0  0  0  0  0  0  0  0
  -12.1450   -0.9640   -2.3390 O   0  0  0  0  0  0  0  0  0  0  0  0
  -18.7610   -1.8760   -2.7390 F   0  0  0  0  0  0  0  0  0  0  0  0
  -18.4550    0.3250   -2.2750 F   0  0  0  0  0  0  0  0  0  0  0  0
  -19.1950   -1.1300   -0.7370 F   0  0  0  0  0  0  0  0  0  0  0  0
  -10.0453   -2.0069   -4.3181 C   0  0  0  0  0  0  0  0  0  0  0  0
   -9.8029   -3.7797   -2.8149 O   0  0  0  0  0  0  0  0  0  0  0  0
  -11.0026   -3.0800   -4.9166 C   0  0  0  0  0  0  0  0  0  0  0  0
  -11.2479   -4.0904   -4.1615 C   0  0  0  0  0  0  0  0  0  0  0  0
  -12.2315   -4.2952   -3.3138 F   0  0  0  0  0  0  0  0  0  0  0  0
   -8.9925   -4.8526   -2.9635 C   0  0  0  0  0  0  0  0  0  0  0  0
  -11.2794   -4.8977   -5.1500 F   0  0  0  0  0  0  0  0  0  0  0  0
  1  2  2  0
  2  3  1  0
  2 16  1  0
  3  4  1  0
  3  6  2  0
  4  5  1  0
  6  7  1  0
  7 15  1  0
  7  8  1  0
 11 12  1  0
 12 28  1  0
 12 27  1  0
 12 26  1  0
 15 16  1  0
 15 25  2  0
 16 17  1  0
 17 18  1  0
 18 19  1  0
 18 29  1  0
 18 30  1  0
 29 31  1  0
 31 32  2  3
 32 33  1  0
 30 34  1  0
 32 35  1  0
  8  9  2  0
  9 10  1  0
 10 11  2  0
 11 13  1  0
 13 14  2  0
 14  8  1  0
 19 20  2  0
 20 21  1  0
 21 22  2  0
 22 23  1  0
 23 24  2  0
 24 19  1  0
M  END

$$$$
No_437-gen_results_new/Mpro_new_generate_500/2024-01-19-21-58-56/
     RDKit          3D

 32 35  0  0  0  0  0  0  0  0999 V2000
   -9.1300   -2.9100    0.4520 O   0  0  0  0  0  0  0  0  0  0  0  0
  -10.2490   -2.6420    0.1800 C   0  0  0  0  0  0  0  0  0  0  0  0
  -11.3800   -3.0650    1.0860 C   0  0  0  0  0  0  0  0  0  0  0  0
  -11.2000   -3.8390    2.3880 C   0  0  0  0  0  0  0  0  0  0  0  0
  -10.9900   -5.0690    2.3420 N   0  0  0  0  0  0  0  0  0  0  0  0
  -12.7310   -2.7290    0.7330 N   0  0  0  0  0  0  0  0  0  0  0  0
  -12.9960   -1.9940   -0.4510 N   0  0  0  0  0  0  0  0  0  0  0  0
  -14.3580   -1.6940   -0.7530 C   0  0  0  0  0  0  0  0  0  0  0  0
  -15.0390   -0.7180   -0.0560 C   0  0  0  0  0  0  0  0  0  0  0  0
  -16.3510   -0.4690   -0.3980 C   0  0  0  0  0  0  0  0  0  0  0  0
  -16.9430   -1.2030   -1.4080 C   0  0  0  0  0  0  0  0  0  0  0  0
  -18.3840   -0.9560   -1.8060 C   0  0  0  0  0  0  0  0  0  0  0  0
  -16.2510   -2.1690   -2.1000 C   0  0  0  0  0  0  0  0  0  0  0  0
  -14.9490   -2.4160   -1.7590 C   0  0  0  0  0  0  0  0  0  0  0  0
  -11.9050   -1.5730   -1.3540 C   0  0  0  0  0  0  0  0  0  0  0  0
  -10.5280   -1.9050   -1.0240 N   0  0  0  0  0  0  0  0  0  0  0  0
   -9.4550   -1.4720   -1.9190 C   0  0  0  0  0  0  0  0  0  0  0  0
   -9.2820   -2.3940   -3.1270 C   0  0  0  0  0  0  0  0  0  0  0  0
   -7.8170   -2.5500   -3.5360 C   0  0  0  0  0  0  0  0  0  0  0  0
   -6.9720   -3.3210   -2.7550 C   0  0  0  0  0  0  0  0  0  0  0  0
   -5.6390   -3.4770   -3.1110 C   0  0  0  0  0  0  0  0  0  0  0  0
   -5.1940   -2.8390   -4.2640 C   0  0  0  0  0  0  0  0  0  0  0  0
   -6.0850   -2.0780   -5.0070 C   0  0  0  0  0  0  0  0  0  0  0  0
   -7.3470   -1.9600   -4.6270 N   0  0  0  0  0  0  0  0  0  0  0  0
  -12.1450   -0.9640   -2.3390 O   0  0  0  0  0  0  0  0  0  0  0  0
  -18.7610   -1.8760   -2.7390 F   0  0  0  0  0  0  0  0  0  0  0  0
  -18.4550    0.3250   -2.2750 F   0  0  0  0  0  0  0  0  0  0  0  0
  -19.1950   -1.1300   -0.7370 F   0  0  0  0  0  0  0  0  0  0  0  0
  -10.1467   -3.0903   -3.8357 C   0  0  0  0  0  0  0  0  0  0  0  0
  -10.1681   -2.5855   -3.6007 C   0  0  0  0  0  0  0  0  0  0  0  0
  -11.3307   -2.7701   -3.8546 C   0  0  0  0  0  0  0  0  0  0  0  0
  -10.2951   -1.5876   -4.1229 C   0  0  0  0  0  0  0  0  0  0  0  0
  1  2  2  0
  2  3  1  0
  2 16  1  0
  3  4  1  0
  3  6  2  0
  4  5  1  0
  6  7  1  0
  7 15  1  0
  7  8  1  0
 11 12  1  0
 12 28  1  0
 12 27  1  0
 12 26  1  0
 15 16  1  0
 15 25  2  0
 16 17  1  0
 17 18  1  0
 18 19  1  0
 18 29  1  0
 29 30  1  0
 29 31  1  0
 30 32  1  0
 31 32  1  0
  8  9  2  0
  9 10  1  0
 10 11  2  0
 11 13  1  0
 13 14  2  0
 14  8  1  0
 19 20  2  0
 20 21  1  0
 21 22  2  0
 22 23  1  0
 23 24  2  0
 24 19  1  0
M  END

$$$$
No_438-gen_results_new/Mpro_new_generate_500/2024-01-19-21-58-56/
     RDKit          3D

 34 36  0  0  0  0  0  0  0  0999 V2000
   -9.1300   -2.9100    0.4520 O   0  0  0  0  0  0  0  0  0  0  0  0
  -10.2490   -2.6420    0.1800 C   0  0  0  0  0  0  0  0  0  0  0  0
  -11.3800   -3.0650    1.0860 C   0  0  0  0  0  0  0  0  0  0  0  0
  -11.2000   -3.8390    2.3880 C   0  0  0  0  0  0  0  0  0  0  0  0
  -10.9900   -5.0690    2.3420 N   0  0  0  0  0  0  0  0  0  0  0  0
  -12.7310   -2.7290    0.7330 N   0  0  0  0  0  0  0  0  0  0  0  0
  -12.9960   -1.9940   -0.4510 N   0  0  0  0  0  0  0  0  0  0  0  0
  -14.3580   -1.6940   -0.7530 C   0  0  0  0  0  0  0  0  0  0  0  0
  -15.0390   -0.7180   -0.0560 C   0  0  0  0  0  0  0  0  0  0  0  0
  -16.3510   -0.4690   -0.3980 C   0  0  0  0  0  0  0  0  0  0  0  0
  -16.9430   -1.2030   -1.4080 C   0  0  0  0  0  0  0  0  0  0  0  0
  -18.3840   -0.9560   -1.8060 C   0  0  0  0  0  0  0  0  0  0  0  0
  -16.2510   -2.1690   -2.1000 C   0  0  0  0  0  0  0  0  0  0  0  0
  -14.9490   -2.4160   -1.7590 C   0  0  0  0  0  0  0  0  0  0  0  0
  -11.9050   -1.5730   -1.3540 C   0  0  0  0  0  0  0  0  0  0  0  0
  -10.5280   -1.9050   -1.0240 N   0  0  0  0  0  0  0  0  0  0  0  0
   -9.4550   -1.4720   -1.9190 C   0  0  0  0  0  0  0  0  0  0  0  0
   -9.2820   -2.3940   -3.1270 C   0  0  0  0  0  0  0  0  0  0  0  0
   -7.8170   -2.5500   -3.5360 C   0  0  0  0  0  0  0  0  0  0  0  0
   -6.9720   -3.3210   -2.7550 C   0  0  0  0  0  0  0  0  0  0  0  0
   -5.6390   -3.4770   -3.1110 C   0  0  0  0  0  0  0  0  0  0  0  0
   -5.1940   -2.8390   -4.2640 C   0  0  0  0  0  0  0  0  0  0  0  0
   -6.0850   -2.0780   -5.0070 C   0  0  0  0  0  0  0  0  0  0  0  0
   -7.3470   -1.9600   -4.6270 N   0  0  0  0  0  0  0  0  0  0  0  0
  -12.1450   -0.9640   -2.3390 O   0  0  0  0  0  0  0  0  0  0  0  0
  -18.7610   -1.8760   -2.7390 F   0  0  0  0  0  0  0  0  0  0  0  0
  -18.4550    0.3250   -2.2750 F   0  0  0  0  0  0  0  0  0  0  0  0
  -19.1950   -1.1300   -0.7370 F   0  0  0  0  0  0  0  0  0  0  0  0
   -9.7920   -3.7475   -2.8656 C   0  0  0  0  0  0  0  0  0  0  0  0
  -10.1387   -2.0206   -4.2903 C   0  0  0  0  0  0  0  0  0  0  0  0
   -9.3214   -4.3191   -1.7083 F   0  0  0  0  0  0  0  0  0  0  0  0
  -11.1099   -4.0767   -2.9549 C   0  0  0  0  0  0  0  0  0  0  0  0
   -9.3420   -4.7562   -3.7999 F   0  0  0  0  0  0  0  0  0  0  0  0
  -11.6721   -4.3276   -4.4376 C   0  0  0  0  0  0  0  0  0  0  0  0
  1  2  2  0
  2  3  1  0
  2 16  1  0
  3  4  1  0
  3  6  2  0
  4  5  1  0
  6  7  1  0
  7 15  1  0
  7  8  1  0
 11 12  1  0
 12 28  1  0
 12 27  1  0
 12 26  1  0
 15 16  1  0
 15 25  2  0
 16 17  1  0
 17 18  1  0
 18 19  1  0
 18 29  1  0
 18 30  1  0
 29 31  1  0
 29 32  1  0
 29 33  1  0
 32 34  2  0
  8  9  2  0
  9 10  1  0
 10 11  2  0
 11 13  1  0
 13 14  2  0
 14  8  1  0
 19 20  2  0
 20 21  1  0
 21 22  2  0
 22 23  1  0
 23 24  2  0
 24 19  1  0
M  END

$$$$
No_439-gen_results_new/Mpro_new_generate_500/2024-01-19-21-58-56/
     RDKit          3D

 35 38  0  0  0  0  0  0  0  0999 V2000
   -9.1300   -2.9100    0.4520 O   0  0  0  0  0  0  0  0  0  0  0  0
  -10.2490   -2.6420    0.1800 C   0  0  0  0  0  0  0  0  0  0  0  0
  -11.3800   -3.0650    1.0860 C   0  0  0  0  0  0  0  0  0  0  0  0
  -11.2000   -3.8390    2.3880 C   0  0  0  0  0  0  0  0  0  0  0  0
  -10.9900   -5.0690    2.3420 N   0  0  0  0  0  0  0  0  0  0  0  0
  -12.7310   -2.7290    0.7330 N   0  0  0  0  0  0  0  0  0  0  0  0
  -12.9960   -1.9940   -0.4510 N   0  0  0  0  0  0  0  0  0  0  0  0
  -14.3580   -1.6940   -0.7530 C   0  0  0  0  0  0  0  0  0  0  0  0
  -15.0390   -0.7180   -0.0560 C   0  0  0  0  0  0  0  0  0  0  0  0
  -16.3510   -0.4690   -0.3980 C   0  0  0  0  0  0  0  0  0  0  0  0
  -16.9430   -1.2030   -1.4080 C   0  0  0  0  0  0  0  0  0  0  0  0
  -18.3840   -0.9560   -1.8060 C   0  0  0  0  0  0  0  0  0  0  0  0
  -16.2510   -2.1690   -2.1000 C   0  0  0  0  0  0  0  0  0  0  0  0
  -14.9490   -2.4160   -1.7590 C   0  0  0  0  0  0  0  0  0  0  0  0
  -11.9050   -1.5730   -1.3540 C   0  0  0  0  0  0  0  0  0  0  0  0
  -10.5280   -1.9050   -1.0240 N   0  0  0  0  0  0  0  0  0  0  0  0
   -9.4550   -1.4720   -1.9190 C   0  0  0  0  0  0  0  0  0  0  0  0
   -9.2820   -2.3940   -3.1270 C   0  0  0  0  0  0  0  0  0  0  0  0
   -7.8170   -2.5500   -3.5360 C   0  0  0  0  0  0  0  0  0  0  0  0
   -6.9720   -3.3210   -2.7550 C   0  0  0  0  0  0  0  0  0  0  0  0
   -5.6390   -3.4770   -3.1110 C   0  0  0  0  0  0  0  0  0  0  0  0
   -5.1940   -2.8390   -4.2640 C   0  0  0  0  0  0  0  0  0  0  0  0
   -6.0850   -2.0780   -5.0070 C   0  0  0  0  0  0  0  0  0  0  0  0
   -7.3470   -1.9600   -4.6270 N   0  0  0  0  0  0  0  0  0  0  0  0
  -12.1450   -0.9640   -2.3390 O   0  0  0  0  0  0  0  0  0  0  0  0
  -18.7610   -1.8760   -2.7390 F   0  0  0  0  0  0  0  0  0  0  0  0
  -18.4550    0.3250   -2.2750 F   0  0  0  0  0  0  0  0  0  0  0  0
  -19.1950   -1.1300   -0.7370 F   0  0  0  0  0  0  0  0  0  0  0  0
  -10.0453   -2.0069   -4.3181 C   0  0  0  0  0  0  0  0  0  0  0  0
   -9.8476   -3.8948   -2.8015 C   0  0  0  0  0  0  0  0  0  0  0  0
  -10.9871   -4.2370   -3.4678 C   0  0  0  0  0  0  0  0  0  0  0  0
  -11.0932   -2.9485   -4.4299 C   0  0  0  0  0  0  0  0  0  0  0  0
  -11.8298   -5.1154   -3.3668 O   0  0  0  0  0  0  0  0  0  0  0  0
  -12.8420   -5.0089   -2.1991 C   0  0  0  0  0  0  0  0  0  0  0  0
  -14.1620   -5.4546   -2.7021 C   0  0  0  0  0  0  0  0  0  0  0  0
  1  2  2  0
  2  3  1  0
  2 16  1  0
  3  4  1  0
  3  6  2  0
  4  5  1  0
  6  7  1  0
  7 15  1  0
  7  8  1  0
 11 12  1  0
 12 28  1  0
 12 27  1  0
 12 26  1  0
 15 16  1  0
 15 25  2  0
 16 17  1  0
 17 18  1  0
 18 19  1  0
 18 29  1  0
 18 30  1  0
 30 31  1  0
 29 32  2  0
 31 32  1  0
 31 33  1  0
 33 34  1  0
 34 35  1  0
  8  9  2  0
  9 10  1  0
 10 11  2  0
 11 13  1  0
 13 14  2  0
 14  8  1  0
 19 20  2  0
 20 21  1  0
 21 22  2  0
 22 23  1  0
 23 24  2  0
 24 19  1  0
M  END

$$$$
No_440-gen_results_new/Mpro_new_generate_500/2024-01-19-21-58-56/
     RDKit          3D

 34 36  0  0  0  0  0  0  0  0999 V2000
   -9.1300   -2.9100    0.4520 O   0  0  0  0  0  0  0  0  0  0  0  0
  -10.2490   -2.6420    0.1800 C   0  0  0  0  0  0  0  0  0  0  0  0
  -11.3800   -3.0650    1.0860 C   0  0  0  0  0  0  0  0  0  0  0  0
  -11.2000   -3.8390    2.3880 C   0  0  0  0  0  0  0  0  0  0  0  0
  -10.9900   -5.0690    2.3420 N   0  0  0  0  0  0  0  0  0  0  0  0
  -12.7310   -2.7290    0.7330 N   0  0  0  0  0  0  0  0  0  0  0  0
  -12.9960   -1.9940   -0.4510 N   0  0  0  0  0  0  0  0  0  0  0  0
  -14.3580   -1.6940   -0.7530 C   0  0  0  0  0  0  0  0  0  0  0  0
  -15.0390   -0.7180   -0.0560 C   0  0  0  0  0  0  0  0  0  0  0  0
  -16.3510   -0.4690   -0.3980 C   0  0  0  0  0  0  0  0  0  0  0  0
  -16.9430   -1.2030   -1.4080 C   0  0  0  0  0  0  0  0  0  0  0  0
  -18.3840   -0.9560   -1.8060 C   0  0  0  0  0  0  0  0  0  0  0  0
  -16.2510   -2.1690   -2.1000 C   0  0  0  0  0  0  0  0  0  0  0  0
  -14.9490   -2.4160   -1.7590 C   0  0  0  0  0  0  0  0  0  0  0  0
  -11.9050   -1.5730   -1.3540 C   0  0  0  0  0  0  0  0  0  0  0  0
  -10.5280   -1.9050   -1.0240 N   0  0  0  0  0  0  0  0  0  0  0  0
   -9.4550   -1.4720   -1.9190 C   0  0  0  0  0  0  0  0  0  0  0  0
   -9.2820   -2.3940   -3.1270 C   0  0  0  0  0  0  0  0  0  0  0  0
   -7.8170   -2.5500   -3.5360 C   0  0  0  0  0  0  0  0  0  0  0  0
   -6.9720   -3.3210   -2.7550 C   0  0  0  0  0  0  0  0  0  0  0  0
   -5.6390   -3.4770   -3.1110 C   0  0  0  0  0  0  0  0  0  0  0  0
   -5.1940   -2.8390   -4.2640 C   0  0  0  0  0  0  0  0  0  0  0  0
   -6.0850   -2.0780   -5.0070 C   0  0  0  0  0  0  0  0  0  0  0  0
   -7.3470   -1.9600   -4.6270 N   0  0  0  0  0  0  0  0  0  0  0  0
  -12.1450   -0.9640   -2.3390 O   0  0  0  0  0  0  0  0  0  0  0  0
  -18.7610   -1.8760   -2.7390 F   0  0  0  0  0  0  0  0  0  0  0  0
  -18.4550    0.3250   -2.2750 F   0  0  0  0  0  0  0  0  0  0  0  0
  -19.1950   -1.1300   -0.7370 F   0  0  0  0  0  0  0  0  0  0  0  0
  -10.0122   -2.0535   -4.1781 O   0  0  0  0  0  0  0  0  0  0  0  0
   -9.8786   -3.6143   -3.1098 F   0  0  0  0  0  0  0  0  0  0  0  0
  -10.8413   -3.0684   -4.9993 C   0  0  0  0  0  0  0  0  0  0  0  0
  -11.9038   -3.6627   -4.8324 F   0  0  0  0  0  0  0  0  0  0  0  0
  -11.0757   -2.0574   -5.8117 F   0  0  0  0  0  0  0  0  0  0  0  0
  -10.0310   -3.8903   -5.7825 F   0  0  0  0  0  0  0  0  0  0  0  0
  1  2  2  0
  2  3  1  0
  2 16  1  0
  3  4  1  0
  3  6  2  0
  4  5  1  0
  6  7  1  0
  7 15  1  0
  7  8  1  0
 11 12  1  0
 12 28  1  0
 12 27  1  0
 12 26  1  0
 15 16  1  0
 15 25  2  0
 16 17  1  0
 17 18  1  0
 18 19  1  0
 18 29  1  0
 18 30  1  0
 29 31  1  0
 31 32  1  0
 31 33  1  0
 31 34  1  0
  8  9  2  0
  9 10  1  0
 10 11  2  0
 11 13  1  0
 13 14  2  0
 14  8  1  0
 19 20  2  0
 20 21  1  0
 21 22  2  0
 22 23  1  0
 23 24  2  0
 24 19  1  0
M  END

$$$$
No_441-gen_results_new/Mpro_new_generate_500/2024-01-19-21-58-56/
     RDKit          3D

 32 34  0  0  0  0  0  0  0  0999 V2000
   -9.1300   -2.9100    0.4520 O   0  0  0  0  0  0  0  0  0  0  0  0
  -10.2490   -2.6420    0.1800 C   0  0  0  0  0  0  0  0  0  0  0  0
  -11.3800   -3.0650    1.0860 C   0  0  0  0  0  0  0  0  0  0  0  0
  -11.2000   -3.8390    2.3880 C   0  0  0  0  0  0  0  0  0  0  0  0
  -10.9900   -5.0690    2.3420 N   0  0  0  0  0  0  0  0  0  0  0  0
  -12.7310   -2.7290    0.7330 N   0  0  0  0  0  0  0  0  0  0  0  0
  -12.9960   -1.9940   -0.4510 N   0  0  0  0  0  0  0  0  0  0  0  0
  -14.3580   -1.6940   -0.7530 C   0  0  0  0  0  0  0  0  0  0  0  0
  -15.0390   -0.7180   -0.0560 C   0  0  0  0  0  0  0  0  0  0  0  0
  -16.3510   -0.4690   -0.3980 C   0  0  0  0  0  0  0  0  0  0  0  0
  -16.9430   -1.2030   -1.4080 C   0  0  0  0  0  0  0  0  0  0  0  0
  -18.3840   -0.9560   -1.8060 C   0  0  0  0  0  0  0  0  0  0  0  0
  -16.2510   -2.1690   -2.1000 C   0  0  0  0  0  0  0  0  0  0  0  0
  -14.9490   -2.4160   -1.7590 C   0  0  0  0  0  0  0  0  0  0  0  0
  -11.9050   -1.5730   -1.3540 C   0  0  0  0  0  0  0  0  0  0  0  0
  -10.5280   -1.9050   -1.0240 N   0  0  0  0  0  0  0  0  0  0  0  0
   -9.4550   -1.4720   -1.9190 C   0  0  0  0  0  0  0  0  0  0  0  0
   -9.2820   -2.3940   -3.1270 C   0  0  0  0  0  0  0  0  0  0  0  0
   -7.8170   -2.5500   -3.5360 C   0  0  0  0  0  0  0  0  0  0  0  0
   -6.9720   -3.3210   -2.7550 C   0  0  0  0  0  0  0  0  0  0  0  0
   -5.6390   -3.4770   -3.1110 C   0  0  0  0  0  0  0  0  0  0  0  0
   -5.1940   -2.8390   -4.2640 C   0  0  0  0  0  0  0  0  0  0  0  0
   -6.0850   -2.0780   -5.0070 C   0  0  0  0  0  0  0  0  0  0  0  0
   -7.3470   -1.9600   -4.6270 N   0  0  0  0  0  0  0  0  0  0  0  0
  -12.1450   -0.9640   -2.3390 O   0  0  0  0  0  0  0  0  0  0  0  0
  -18.7610   -1.8760   -2.7390 F   0  0  0  0  0  0  0  0  0  0  0  0
  -18.4550    0.3250   -2.2750 F   0  0  0  0  0  0  0  0  0  0  0  0
  -19.1950   -1.1300   -0.7370 F   0  0  0  0  0  0  0  0  0  0  0  0
  -10.1467   -3.0903   -3.8357 C   0  0  0  0  0  0  0  0  0  0  0  0
  -10.1681   -2.5855   -3.6007 C   0  0  0  0  0  0  0  0  0  0  0  0
  -11.5887   -2.4159   -3.7786 S   0  0  0  0  0  0  0  0  0  0  0  0
  -12.5224   -2.7547   -4.5372 O   0  0  0  0  0  0  0  0  0  0  0  0
  1  2  2  0
  2  3  1  0
  2 16  1  0
  3  4  1  0
  3  6  2  0
  4  5  1  0
  6  7  1  0
  7 15  1  0
  7  8  1  0
 11 12  1  0
 12 28  1  0
 12 27  1  0
 12 26  1  0
 15 16  1  0
 15 25  2  0
 16 17  1  0
 17 18  1  0
 18 19  1  0
 18 29  1  0
 29 30  1  0
 30 31  1  0
 31 32  2  0
  8  9  2  0
  9 10  1  0
 10 11  2  0
 11 13  1  0
 13 14  2  0
 14  8  1  0
 19 20  2  0
 20 21  1  0
 21 22  2  0
 22 23  1  0
 23 24  2  0
 24 19  1  0
M  END

$$$$
No_442-gen_results_new/Mpro_new_generate_500/2024-01-19-21-58-56/
     RDKit          3D

 34 36  0  0  0  0  0  0  0  0999 V2000
   -9.1300   -2.9100    0.4520 O   0  0  0  0  0  0  0  0  0  0  0  0
  -10.2490   -2.6420    0.1800 C   0  0  0  0  0  0  0  0  0  0  0  0
  -11.3800   -3.0650    1.0860 C   0  0  0  0  0  0  0  0  0  0  0  0
  -11.2000   -3.8390    2.3880 C   0  0  0  0  0  0  0  0  0  0  0  0
  -10.9900   -5.0690    2.3420 N   0  0  0  0  0  0  0  0  0  0  0  0
  -12.7310   -2.7290    0.7330 N   0  0  0  0  0  0  0  0  0  0  0  0
  -12.9960   -1.9940   -0.4510 N   0  0  0  0  0  0  0  0  0  0  0  0
  -14.3580   -1.6940   -0.7530 C   0  0  0  0  0  0  0  0  0  0  0  0
  -15.0390   -0.7180   -0.0560 C   0  0  0  0  0  0  0  0  0  0  0  0
  -16.3510   -0.4690   -0.3980 C   0  0  0  0  0  0  0  0  0  0  0  0
  -16.9430   -1.2030   -1.4080 C   0  0  0  0  0  0  0  0  0  0  0  0
  -18.3840   -0.9560   -1.8060 C   0  0  0  0  0  0  0  0  0  0  0  0
  -16.2510   -2.1690   -2.1000 C   0  0  0  0  0  0  0  0  0  0  0  0
  -14.9490   -2.4160   -1.7590 C   0  0  0  0  0  0  0  0  0  0  0  0
  -11.9050   -1.5730   -1.3540 C   0  0  0  0  0  0  0  0  0  0  0  0
  -10.5280   -1.9050   -1.0240 N   0  0  0  0  0  0  0  0  0  0  0  0
   -9.4550   -1.4720   -1.9190 C   0  0  0  0  0  0  0  0  0  0  0  0
   -9.2820   -2.3940   -3.1270 C   0  0  0  0  0  0  0  0  0  0  0  0
   -7.8170   -2.5500   -3.5360 C   0  0  0  0  0  0  0  0  0  0  0  0
   -6.9720   -3.3210   -2.7550 C   0  0  0  0  0  0  0  0  0  0  0  0
   -5.6390   -3.4770   -3.1110 C   0  0  0  0  0  0  0  0  0  0  0  0
   -5.1940   -2.8390   -4.2640 C   0  0  0  0  0  0  0  0  0  0  0  0
   -6.0850   -2.0780   -5.0070 C   0  0  0  0  0  0  0  0  0  0  0  0
   -7.3470   -1.9600   -4.6270 N   0  0  0  0  0  0  0  0  0  0  0  0
  -12.1450   -0.9640   -2.3390 O   0  0  0  0  0  0  0  0  0  0  0  0
  -18.7610   -1.8760   -2.7390 F   0  0  0  0  0  0  0  0  0  0  0  0
  -18.4550    0.3250   -2.2750 F   0  0  0  0  0  0  0  0  0  0  0  0
  -19.1950   -1.1300   -0.7370 F   0  0  0  0  0  0  0  0  0  0  0  0
   -9.7920   -3.7475   -2.8656 C   0  0  0  0  0  0  0  0  0  0  0  0
  -10.0717   -1.8029   -4.3549 C   0  0  0  0  0  0  0  0  0  0  0  0
  -10.8091   -3.9382   -3.1276 O   0  0  0  0  0  0  0  0  0  0  0  0
   -9.4142   -4.5373   -2.0523 O   0  0  0  0  0  0  0  0  0  0  0  0
   -9.4906   -5.6290   -2.8381 C   0  0  0  0  0  0  0  0  0  0  0  0
   -9.3628   -5.9934   -1.5838 C   0  0  0  0  0  0  0  0  0  0  0  0
  1  2  2  0
  2  3  1  0
  2 16  1  0
  3  4  1  0
  3  6  2  0
  4  5  1  0
  6  7  1  0
  7 15  1  0
  7  8  1  0
 11 12  1  0
 12 28  1  0
 12 27  1  0
 12 26  1  0
 15 16  1  0
 15 25  2  0
 16 17  1  0
 17 18  1  0
 18 19  1  0
 18 29  1  0
 18 30  1  0
 29 31  2  0
 29 32  1  0
 32 33  1  0
 33 34  3  0
  8  9  2  0
  9 10  1  0
 10 11  2  0
 11 13  1  0
 13 14  2  0
 14  8  1  0
 19 20  2  0
 20 21  1  0
 21 22  2  0
 22 23  1  0
 23 24  2  0
 24 19  1  0
M  END

$$$$
No_443-gen_results_new/Mpro_new_generate_500/2024-01-19-21-58-56/
     RDKit          3D

 33 36  0  0  0  0  0  0  0  0999 V2000
   -9.1300   -2.9100    0.4520 O   0  0  0  0  0  0  0  0  0  0  0  0
  -10.2490   -2.6420    0.1800 C   0  0  0  0  0  0  0  0  0  0  0  0
  -11.3800   -3.0650    1.0860 C   0  0  0  0  0  0  0  0  0  0  0  0
  -11.2000   -3.8390    2.3880 C   0  0  0  0  0  0  0  0  0  0  0  0
  -10.9900   -5.0690    2.3420 N   0  0  0  0  0  0  0  0  0  0  0  0
  -12.7310   -2.7290    0.7330 N   0  0  0  0  0  0  0  0  0  0  0  0
  -12.9960   -1.9940   -0.4510 N   0  0  0  0  0  0  0  0  0  0  0  0
  -14.3580   -1.6940   -0.7530 C   0  0  0  0  0  0  0  0  0  0  0  0
  -15.0390   -0.7180   -0.0560 C   0  0  0  0  0  0  0  0  0  0  0  0
  -16.3510   -0.4690   -0.3980 C   0  0  0  0  0  0  0  0  0  0  0  0
  -16.9430   -1.2030   -1.4080 C   0  0  0  0  0  0  0  0  0  0  0  0
  -18.3840   -0.9560   -1.8060 C   0  0  0  0  0  0  0  0  0  0  0  0
  -16.2510   -2.1690   -2.1000 C   0  0  0  0  0  0  0  0  0  0  0  0
  -14.9490   -2.4160   -1.7590 C   0  0  0  0  0  0  0  0  0  0  0  0
  -11.9050   -1.5730   -1.3540 C   0  0  0  0  0  0  0  0  0  0  0  0
  -10.5280   -1.9050   -1.0240 N   0  0  0  0  0  0  0  0  0  0  0  0
   -9.4550   -1.4720   -1.9190 C   0  0  0  0  0  0  0  0  0  0  0  0
   -9.2820   -2.3940   -3.1270 C   0  0  0  0  0  0  0  0  0  0  0  0
   -7.8170   -2.5500   -3.5360 C   0  0  0  0  0  0  0  0  0  0  0  0
   -6.9720   -3.3210   -2.7550 C   0  0  0  0  0  0  0  0  0  0  0  0
   -5.6390   -3.4770   -3.1110 C   0  0  0  0  0  0  0  0  0  0  0  0
   -5.1940   -2.8390   -4.2640 C   0  0  0  0  0  0  0  0  0  0  0  0
   -6.0850   -2.0780   -5.0070 C   0  0  0  0  0  0  0  0  0  0  0  0
   -7.3470   -1.9600   -4.6270 N   0  0  0  0  0  0  0  0  0  0  0  0
  -12.1450   -0.9640   -2.3390 O   0  0  0  0  0  0  0  0  0  0  0  0
  -18.7610   -1.8760   -2.7390 F   0  0  0  0  0  0  0  0  0  0  0  0
  -18.4550    0.3250   -2.2750 F   0  0  0  0  0  0  0  0  0  0  0  0
  -19.1950   -1.1300   -0.7370 F   0  0  0  0  0  0  0  0  0  0  0  0
   -9.7920   -3.7475   -2.8656 C   0  0  0  0  0  0  0  0  0  0  0  0
  -10.1387   -2.0206   -4.2903 C   0  0  0  0  0  0  0  0  0  0  0  0
  -10.7383   -4.2958   -3.7467 C   0  0  0  0  0  0  0  0  0  0  0  0
  -11.6625   -5.3353   -3.4491 F   0  0  0  0  0  0  0  0  0  0  0  0
  -11.1590   -3.0935   -4.4980 C   0  0  0  0  0  0  0  0  0  0  0  0
  1  2  2  0
  2  3  1  0
  2 16  1  0
  3  4  1  0
  3  6  2  0
  4  5  1  0
  6  7  1  0
  7 15  1  0
  7  8  1  0
 11 12  1  0
 12 28  1  0
 12 27  1  0
 12 26  1  0
 15 16  1  0
 15 25  2  0
 16 17  1  0
 17 18  1  0
 18 19  1  0
 18 29  1  0
 18 30  1  0
 29 31  1  0
 31 32  1  0
 30 33  1  0
 31 33  1  0
  8  9  2  0
  9 10  1  0
 10 11  2  0
 11 13  1  0
 13 14  2  0
 14  8  1  0
 19 20  2  0
 20 21  1  0
 21 22  2  0
 22 23  1  0
 23 24  2  0
 24 19  1  0
M  END

$$$$
No_444-gen_results_new/Mpro_new_generate_500/2024-01-19-21-58-56/
     RDKit          3D

 34 37  0  0  0  0  0  0  0  0999 V2000
   -9.1300   -2.9100    0.4520 O   0  0  0  0  0  0  0  0  0  0  0  0
  -10.2490   -2.6420    0.1800 C   0  0  0  0  0  0  0  0  0  0  0  0
  -11.3800   -3.0650    1.0860 C   0  0  0  0  0  0  0  0  0  0  0  0
  -11.2000   -3.8390    2.3880 C   0  0  0  0  0  0  0  0  0  0  0  0
  -10.9900   -5.0690    2.3420 N   0  0  0  0  0  0  0  0  0  0  0  0
  -12.7310   -2.7290    0.7330 N   0  0  0  0  0  0  0  0  0  0  0  0
  -12.9960   -1.9940   -0.4510 N   0  0  0  0  0  0  0  0  0  0  0  0
  -14.3580   -1.6940   -0.7530 C   0  0  0  0  0  0  0  0  0  0  0  0
  -15.0390   -0.7180   -0.0560 C   0  0  0  0  0  0  0  0  0  0  0  0
  -16.3510   -0.4690   -0.3980 C   0  0  0  0  0  0  0  0  0  0  0  0
  -16.9430   -1.2030   -1.4080 C   0  0  0  0  0  0  0  0  0  0  0  0
  -18.3840   -0.9560   -1.8060 C   0  0  0  0  0  0  0  0  0  0  0  0
  -16.2510   -2.1690   -2.1000 C   0  0  0  0  0  0  0  0  0  0  0  0
  -14.9490   -2.4160   -1.7590 C   0  0  0  0  0  0  0  0  0  0  0  0
  -11.9050   -1.5730   -1.3540 C   0  0  0  0  0  0  0  0  0  0  0  0
  -10.5280   -1.9050   -1.0240 N   0  0  0  0  0  0  0  0  0  0  0  0
   -9.4550   -1.4720   -1.9190 C   0  0  0  0  0  0  0  0  0  0  0  0
   -9.2820   -2.3940   -3.1270 C   0  0  0  0  0  0  0  0  0  0  0  0
   -7.8170   -2.5500   -3.5360 C   0  0  0  0  0  0  0  0  0  0  0  0
   -6.9720   -3.3210   -2.7550 C   0  0  0  0  0  0  0  0  0  0  0  0
   -5.6390   -3.4770   -3.1110 C   0  0  0  0  0  0  0  0  0  0  0  0
   -5.1940   -2.8390   -4.2640 C   0  0  0  0  0  0  0  0  0  0  0  0
   -6.0850   -2.0780   -5.0070 C   0  0  0  0  0  0  0  0  0  0  0  0
   -7.3470   -1.9600   -4.6270 N   0  0  0  0  0  0  0  0  0  0  0  0
  -12.1450   -0.9640   -2.3390 O   0  0  0  0  0  0  0  0  0  0  0  0
  -18.7610   -1.8760   -2.7390 F   0  0  0  0  0  0  0  0  0  0  0  0
  -18.4550    0.3250   -2.2750 F   0  0  0  0  0  0  0  0  0  0  0  0
  -19.1950   -1.1300   -0.7370 F   0  0  0  0  0  0  0  0  0  0  0  0
  -10.0453   -2.0069   -4.3181 C   0  0  0  0  0  0  0  0  0  0  0  0
   -9.9627   -4.1189   -2.7873 S   0  0  0  0  0  0  0  0  0  0  0  0
   -8.8478   -4.9354   -2.4168 C   0  0  0  0  0  0  0  0  0  0  0  0
  -11.3088   -4.4532   -2.8137 O   0  0  0  0  0  0  0  0  0  0  0  0
  -10.0785   -5.1913   -2.9453 O   0  0  0  0  0  0  0  0  0  0  0  0
   -7.5531   -4.2985   -2.0353 C   0  0  0  0  0  0  0  0  0  0  0  0
  1  2  2  0
  2  3  1  0
  2 16  1  0
  3  4  1  0
  3  6  2  0
  4  5  1  0
  6  7  1  0
  7 15  1  0
  7  8  1  0
 11 12  1  0
 12 28  1  0
 12 27  1  0
 12 26  1  0
 15 16  1  0
 15 25  2  0
 16 17  1  0
 17 18  1  0
 18 19  1  0
 18 29  1  0
 18 30  1  0
 30 31  1  0
 30 32  2  0
 30 33  2  0
 20 34  1  0
 31 34  1  0
  8  9  2  0
  9 10  1  0
 10 11  2  0
 11 13  1  0
 13 14  2  0
 14  8  1  0
 19 20  1  0
 20 21  2  0
 21 22  1  0
 22 23  2  0
 23 24  1  0
 24 19  2  0
M  END

$$$$
No_445-gen_results_new/Mpro_new_generate_500/2024-01-19-21-58-56/
     RDKit          3D

 35 38  0  0  0  0  0  0  0  0999 V2000
   -9.1300   -2.9100    0.4520 O   0  0  0  0  0  0  0  0  0  0  0  0
  -10.2490   -2.6420    0.1800 C   0  0  0  0  0  0  0  0  0  0  0  0
  -11.3800   -3.0650    1.0860 C   0  0  0  0  0  0  0  0  0  0  0  0
  -11.2000   -3.8390    2.3880 C   0  0  0  0  0  0  0  0  0  0  0  0
  -10.9900   -5.0690    2.3420 N   0  0  0  0  0  0  0  0  0  0  0  0
  -12.7310   -2.7290    0.7330 N   0  0  0  0  0  0  0  0  0  0  0  0
  -12.9960   -1.9940   -0.4510 N   0  0  0  0  0  0  0  0  0  0  0  0
  -14.3580   -1.6940   -0.7530 C   0  0  0  0  0  0  0  0  0  0  0  0
  -15.0390   -0.7180   -0.0560 C   0  0  0  0  0  0  0  0  0  0  0  0
  -16.3510   -0.4690   -0.3980 C   0  0  0  0  0  0  0  0  0  0  0  0
  -16.9430   -1.2030   -1.4080 C   0  0  0  0  0  0  0  0  0  0  0  0
  -18.3840   -0.9560   -1.8060 C   0  0  0  0  0  0  0  0  0  0  0  0
  -16.2510   -2.1690   -2.1000 C   0  0  0  0  0  0  0  0  0  0  0  0
  -14.9490   -2.4160   -1.7590 C   0  0  0  0  0  0  0  0  0  0  0  0
  -11.9050   -1.5730   -1.3540 C   0  0  0  0  0  0  0  0  0  0  0  0
  -10.5280   -1.9050   -1.0240 N   0  0  0  0  0  0  0  0  0  0  0  0
   -9.4550   -1.4720   -1.9190 C   0  0  0  0  0  0  0  0  0  0  0  0
   -9.2820   -2.3940   -3.1270 C   0  0  0  0  0  0  0  0  0  0  0  0
   -7.8170   -2.5500   -3.5360 C   0  0  0  0  0  0  0  0  0  0  0  0
   -6.9720   -3.3210   -2.7550 C   0  0  0  0  0  0  0  0  0  0  0  0
   -5.6390   -3.4770   -3.1110 C   0  0  0  0  0  0  0  0  0  0  0  0
   -5.1940   -2.8390   -4.2640 C   0  0  0  0  0  0  0  0  0  0  0  0
   -6.0850   -2.0780   -5.0070 C   0  0  0  0  0  0  0  0  0  0  0  0
   -7.3470   -1.9600   -4.6270 N   0  0  0  0  0  0  0  0  0  0  0  0
  -12.1450   -0.9640   -2.3390 O   0  0  0  0  0  0  0  0  0  0  0  0
  -18.7610   -1.8760   -2.7390 F   0  0  0  0  0  0  0  0  0  0  0  0
  -18.4550    0.3250   -2.2750 F   0  0  0  0  0  0  0  0  0  0  0  0
  -19.1950   -1.1300   -0.7370 F   0  0  0  0  0  0  0  0  0  0  0  0
   -9.7920   -3.7475   -2.8656 C   0  0  0  0  0  0  0  0  0  0  0  0
  -10.0717   -1.8029   -4.3549 C   0  0  0  0  0  0  0  0  0  0  0  0
  -10.0419   -4.6597   -4.1091 C   0  0  0  0  0  0  0  0  0  0  0  0
  -10.4950   -3.9035   -5.3363 C   0  0  0  0  0  0  0  0  0  0  0  0
  -10.6586   -2.5663   -5.2678 C   0  0  0  0  0  0  0  0  0  0  0  0
  -11.1949   -4.7692   -6.3556 C   0  0  0  0  0  0  0  0  0  0  0  0
  -10.2405   -5.3564   -7.2555 C   0  0  0  0  0  0  0  0  0  0  0  0
  1  2  2  0
  2  3  1  0
  2 16  1  0
  3  4  1  0
  3  6  2  0
  4  5  1  0
  6  7  1  0
  7 15  1  0
  7  8  1  0
 11 12  1  0
 12 28  1  0
 12 27  1  0
 12 26  1  0
 15 16  1  0
 15 25  2  0
 16 17  1  0
 17 18  1  0
 18 19  1  0
 18 29  1  0
 18 30  1  0
 31 32  1  0
 30 33  1  0
 32 34  1  0
 34 35  2  0
 29 31  1  0
 32 33  1  0
  8  9  2  0
  9 10  1  0
 10 11  2  0
 11 13  1  0
 13 14  2  0
 14  8  1  0
 19 20  2  0
 20 21  1  0
 21 22  2  0
 22 23  1  0
 23 24  2  0
 24 19  1  0
M  END

$$$$
No_446-gen_results_new/Mpro_new_generate_500/2024-01-19-21-58-56/
     RDKit          3D

 35 37  0  0  0  0  0  0  0  0999 V2000
   -9.1300   -2.9100    0.4520 O   0  0  0  0  0  0  0  0  0  0  0  0
  -10.2490   -2.6420    0.1800 C   0  0  0  0  0  0  0  0  0  0  0  0
  -11.3800   -3.0650    1.0860 C   0  0  0  0  0  0  0  0  0  0  0  0
  -11.2000   -3.8390    2.3880 C   0  0  0  0  0  0  0  0  0  0  0  0
  -10.9900   -5.0690    2.3420 N   0  0  0  0  0  0  0  0  0  0  0  0
  -12.7310   -2.7290    0.7330 N   0  0  0  0  0  0  0  0  0  0  0  0
  -12.9960   -1.9940   -0.4510 N   0  0  0  0  0  0  0  0  0  0  0  0
  -14.3580   -1.6940   -0.7530 C   0  0  0  0  0  0  0  0  0  0  0  0
  -15.0390   -0.7180   -0.0560 C   0  0  0  0  0  0  0  0  0  0  0  0
  -16.3510   -0.4690   -0.3980 C   0  0  0  0  0  0  0  0  0  0  0  0
  -16.9430   -1.2030   -1.4080 C   0  0  0  0  0  0  0  0  0  0  0  0
  -18.3840   -0.9560   -1.8060 C   0  0  0  0  0  0  0  0  0  0  0  0
  -16.2510   -2.1690   -2.1000 C   0  0  0  0  0  0  0  0  0  0  0  0
  -14.9490   -2.4160   -1.7590 C   0  0  0  0  0  0  0  0  0  0  0  0
  -11.9050   -1.5730   -1.3540 C   0  0  0  0  0  0  0  0  0  0  0  0
  -10.5280   -1.9050   -1.0240 N   0  0  0  0  0  0  0  0  0  0  0  0
   -9.4550   -1.4720   -1.9190 C   0  0  0  0  0  0  0  0  0  0  0  0
   -9.2820   -2.3940   -3.1270 C   0  0  0  0  0  0  0  0  0  0  0  0
   -7.8170   -2.5500   -3.5360 C   0  0  0  0  0  0  0  0  0  0  0  0
   -6.9720   -3.3210   -2.7550 C   0  0  0  0  0  0  0  0  0  0  0  0
   -5.6390   -3.4770   -3.1110 C   0  0  0  0  0  0  0  0  0  0  0  0
   -5.1940   -2.8390   -4.2640 C   0  0  0  0  0  0  0  0  0  0  0  0
   -6.0850   -2.0780   -5.0070 C   0  0  0  0  0  0  0  0  0  0  0  0
   -7.3470   -1.9600   -4.6270 N   0  0  0  0  0  0  0  0  0  0  0  0
  -12.1450   -0.9640   -2.3390 O   0  0  0  0  0  0  0  0  0  0  0  0
  -18.7610   -1.8760   -2.7390 F   0  0  0  0  0  0  0  0  0  0  0  0
  -18.4550    0.3250   -2.2750 F   0  0  0  0  0  0  0  0  0  0  0  0
  -19.1950   -1.1300   -0.7370 F   0  0  0  0  0  0  0  0  0  0  0  0
   -9.7920   -3.7475   -2.8656 C   0  0  0  0  0  0  0  0  0  0  0  0
  -10.0268   -1.9037   -4.2201 F   0  0  0  0  0  0  0  0  0  0  0  0
  -10.9887   -4.2266   -3.7265 C   0  0  0  0  0  0  0  0  0  0  0  0
  -11.1957   -5.6188   -3.5588 C   0  0  0  0  0  0  0  0  0  0  0  0
  -10.9269   -4.0296   -5.1919 C   0  0  0  0  0  0  0  0  0  0  0  0
  -12.4290   -3.5728   -3.3024 C   0  0  0  0  0  0  0  0  0  0  0  0
   -9.2961   -4.4588   -2.0765 O   0  0  0  0  0  0  0  0  0  0  0  0
  1  2  2  0
  2  3  1  0
  2 16  1  0
  3  4  1  0
  3  6  2  0
  4  5  1  0
  6  7  1  0
  7 15  1  0
  7  8  1  0
 11 12  1  0
 12 28  1  0
 12 27  1  0
 12 26  1  0
 15 16  1  0
 15 25  2  0
 16 17  1  0
 17 18  1  0
 18 19  1  0
 18 29  1  0
 18 30  1  0
 29 31  1  0
 31 32  1  0
 31 33  1  0
 31 34  1  0
 29 35  2  0
  8  9  2  0
  9 10  1  0
 10 11  2  0
 11 13  1  0
 13 14  2  0
 14  8  1  0
 19 20  2  0
 20 21  1  0
 21 22  2  0
 22 23  1  0
 23 24  2  0
 24 19  1  0
M  END

$$$$
No_447-gen_results_new/Mpro_new_generate_500/2024-01-19-21-58-56/
     RDKit          3D

 35 37  0  0  0  0  0  0  0  0999 V2000
   -9.1300   -2.9100    0.4520 O   0  0  0  0  0  0  0  0  0  0  0  0
  -10.2490   -2.6420    0.1800 C   0  0  0  0  0  0  0  0  0  0  0  0
  -11.3800   -3.0650    1.0860 C   0  0  0  0  0  0  0  0  0  0  0  0
  -11.2000   -3.8390    2.3880 C   0  0  0  0  0  0  0  0  0  0  0  0
  -10.9900   -5.0690    2.3420 N   0  0  0  0  0  0  0  0  0  0  0  0
  -12.7310   -2.7290    0.7330 N   0  0  0  0  0  0  0  0  0  0  0  0
  -12.9960   -1.9940   -0.4510 N   0  0  0  0  0  0  0  0  0  0  0  0
  -14.3580   -1.6940   -0.7530 C   0  0  0  0  0  0  0  0  0  0  0  0
  -15.0390   -0.7180   -0.0560 C   0  0  0  0  0  0  0  0  0  0  0  0
  -16.3510   -0.4690   -0.3980 C   0  0  0  0  0  0  0  0  0  0  0  0
  -16.9430   -1.2030   -1.4080 C   0  0  0  0  0  0  0  0  0  0  0  0
  -18.3840   -0.9560   -1.8060 C   0  0  0  0  0  0  0  0  0  0  0  0
  -16.2510   -2.1690   -2.1000 C   0  0  0  0  0  0  0  0  0  0  0  0
  -14.9490   -2.4160   -1.7590 C   0  0  0  0  0  0  0  0  0  0  0  0
  -11.9050   -1.5730   -1.3540 C   0  0  0  0  0  0  0  0  0  0  0  0
  -10.5280   -1.9050   -1.0240 N   0  0  0  0  0  0  0  0  0  0  0  0
   -9.4550   -1.4720   -1.9190 C   0  0  0  0  0  0  0  0  0  0  0  0
   -9.2820   -2.3940   -3.1270 C   0  0  0  0  0  0  0  0  0  0  0  0
   -7.8170   -2.5500   -3.5360 C   0  0  0  0  0  0  0  0  0  0  0  0
   -6.9720   -3.3210   -2.7550 C   0  0  0  0  0  0  0  0  0  0  0  0
   -5.6390   -3.4770   -3.1110 C   0  0  0  0  0  0  0  0  0  0  0  0
   -5.1940   -2.8390   -4.2640 C   0  0  0  0  0  0  0  0  0  0  0  0
   -6.0850   -2.0780   -5.0070 C   0  0  0  0  0  0  0  0  0  0  0  0
   -7.3470   -1.9600   -4.6270 N   0  0  0  0  0  0  0  0  0  0  0  0
  -12.1450   -0.9640   -2.3390 O   0  0  0  0  0  0  0  0  0  0  0  0
  -18.7610   -1.8760   -2.7390 F   0  0  0  0  0  0  0  0  0  0  0  0
  -18.4550    0.3250   -2.2750 F   0  0  0  0  0  0  0  0  0  0  0  0
  -19.1950   -1.1300   -0.7370 F   0  0  0  0  0  0  0  0  0  0  0  0
   -9.9592   -1.9070   -4.1913 F   0  0  0  0  0  0  0  0  0  0  0  0
   -9.8855   -3.8565   -2.8874 C   0  0  0  0  0  0  0  0  0  0  0  0
   -9.8016   -4.8142   -4.0586 C   0  0  0  0  0  0  0  0  0  0  0  0
  -10.6226   -5.8145   -3.7812 F   0  0  0  0  0  0  0  0  0  0  0  0
   -9.0814   -4.8194   -5.1949 C   0  0  0  0  0  0  0  0  0  0  0  0
   -8.1142   -5.9602   -5.2357 C   0  0  0  0  0  0  0  0  0  0  0  0
   -9.5086   -4.5871   -5.2016 C   0  0  0  0  0  0  0  0  0  0  0  0
  1  2  2  0
  2  3  1  0
  2 16  1  0
  3  4  1  0
  3  6  2  0
  4  5  1  0
  6  7  1  0
  7 15  1  0
  7  8  1  0
 11 12  1  0
 12 28  1  0
 12 27  1  0
 12 26  1  0
 15 16  1  0
 15 25  2  0
 16 17  1  0
 17 18  1  0
 18 19  1  0
 18 29  1  0
 18 30  1  0
 30 31  1  0
 31 32  1  0
 31 33  1  0
 33 34  1  0
 33 35  1  0
  8  9  2  0
  9 10  1  0
 10 11  2  0
 11 13  1  0
 13 14  2  0
 14  8  1  0
 19 20  2  0
 20 21  1  0
 21 22  2  0
 22 23  1  0
 23 24  2  0
 24 19  1  0
M  END

$$$$
No_448-gen_results_new/Mpro_new_generate_500/2024-01-19-21-58-56/
     RDKit          3D

 34 36  0  0  0  0  0  0  0  0999 V2000
   -9.1300   -2.9100    0.4520 O   0  0  0  0  0  0  0  0  0  0  0  0
  -10.2490   -2.6420    0.1800 C   0  0  0  0  0  0  0  0  0  0  0  0
  -11.3800   -3.0650    1.0860 C   0  0  0  0  0  0  0  0  0  0  0  0
  -11.2000   -3.8390    2.3880 C   0  0  0  0  0  0  0  0  0  0  0  0
  -10.9900   -5.0690    2.3420 N   0  0  0  0  0  0  0  0  0  0  0  0
  -12.7310   -2.7290    0.7330 N   0  0  0  0  0  0  0  0  0  0  0  0
  -12.9960   -1.9940   -0.4510 N   0  0  0  0  0  0  0  0  0  0  0  0
  -14.3580   -1.6940   -0.7530 C   0  0  0  0  0  0  0  0  0  0  0  0
  -15.0390   -0.7180   -0.0560 C   0  0  0  0  0  0  0  0  0  0  0  0
  -16.3510   -0.4690   -0.3980 C   0  0  0  0  0  0  0  0  0  0  0  0
  -16.9430   -1.2030   -1.4080 C   0  0  0  0  0  0  0  0  0  0  0  0
  -18.3840   -0.9560   -1.8060 C   0  0  0  0  0  0  0  0  0  0  0  0
  -16.2510   -2.1690   -2.1000 C   0  0  0  0  0  0  0  0  0  0  0  0
  -14.9490   -2.4160   -1.7590 C   0  0  0  0  0  0  0  0  0  0  0  0
  -11.9050   -1.5730   -1.3540 C   0  0  0  0  0  0  0  0  0  0  0  0
  -10.5280   -1.9050   -1.0240 N   0  0  0  0  0  0  0  0  0  0  0  0
   -9.4550   -1.4720   -1.9190 C   0  0  0  0  0  0  0  0  0  0  0  0
   -9.2820   -2.3940   -3.1270 C   0  0  0  0  0  0  0  0  0  0  0  0
   -7.8170   -2.5500   -3.5360 C   0  0  0  0  0  0  0  0  0  0  0  0
   -6.9720   -3.3210   -2.7550 C   0  0  0  0  0  0  0  0  0  0  0  0
   -5.6390   -3.4770   -3.1110 C   0  0  0  0  0  0  0  0  0  0  0  0
   -5.1940   -2.8390   -4.2640 C   0  0  0  0  0  0  0  0  0  0  0  0
   -6.0850   -2.0780   -5.0070 C   0  0  0  0  0  0  0  0  0  0  0  0
   -7.3470   -1.9600   -4.6270 N   0  0  0  0  0  0  0  0  0  0  0  0
  -12.1450   -0.9640   -2.3390 O   0  0  0  0  0  0  0  0  0  0  0  0
  -18.7610   -1.8760   -2.7390 F   0  0  0  0  0  0  0  0  0  0  0  0
  -18.4550    0.3250   -2.2750 F   0  0  0  0  0  0  0  0  0  0  0  0
  -19.1950   -1.1300   -0.7370 F   0  0  0  0  0  0  0  0  0  0  0  0
   -9.7920   -3.7475   -2.8656 C   0  0  0  0  0  0  0  0  0  0  0  0
  -10.0717   -1.8029   -4.3549 C   0  0  0  0  0  0  0  0  0  0  0  0
   -9.3646   -4.4618   -1.7954 F   0  0  0  0  0  0  0  0  0  0  0  0
  -10.5037   -4.3699   -3.6094 F   0  0  0  0  0  0  0  0  0  0  0  0
   -9.1787   -4.6754   -2.4830 C   0  0  0  0  0  0  0  0  0  0  0  0
  -10.2384   -6.0068   -1.7996 C   0  0  0  0  0  0  0  0  0  0  0  0
  1  2  2  0
  2  3  1  0
  2 16  1  0
  3  4  1  0
  3  6  2  0
  4  5  1  0
  6  7  1  0
  7 15  1  0
  7  8  1  0
 11 12  1  0
 12 28  1  0
 12 27  1  0
 12 26  1  0
 15 16  1  0
 15 25  2  0
 16 17  1  0
 17 18  1  0
 18 19  1  0
 18 29  1  0
 18 30  1  0
 29 31  1  0
 29 32  1  0
 29 33  1  0
 33 34  1  0
  8  9  2  0
  9 10  1  0
 10 11  2  0
 11 13  1  0
 13 14  2  0
 14  8  1  0
 19 20  2  0
 20 21  1  0
 21 22  2  0
 22 23  1  0
 23 24  2  0
 24 19  1  0
M  END

$$$$
No_449-gen_results_new/Mpro_new_generate_500/2024-01-19-21-58-56/
     RDKit          3D

 34 37  0  0  0  0  0  0  0  0999 V2000
   -9.1300   -2.9100    0.4520 O   0  0  0  0  0  0  0  0  0  0  0  0
  -10.2490   -2.6420    0.1800 C   0  0  0  0  0  0  0  0  0  0  0  0
  -11.3800   -3.0650    1.0860 C   0  0  0  0  0  0  0  0  0  0  0  0
  -11.2000   -3.8390    2.3880 C   0  0  0  0  0  0  0  0  0  0  0  0
  -10.9900   -5.0690    2.3420 N   0  0  0  0  0  0  0  0  0  0  0  0
  -12.7310   -2.7290    0.7330 N   0  0  0  0  0  0  0  0  0  0  0  0
  -12.9960   -1.9940   -0.4510 N   0  0  0  0  0  0  0  0  0  0  0  0
  -14.3580   -1.6940   -0.7530 C   0  0  0  0  0  0  0  0  0  0  0  0
  -15.0390   -0.7180   -0.0560 C   0  0  0  0  0  0  0  0  0  0  0  0
  -16.3510   -0.4690   -0.3980 C   0  0  0  0  0  0  0  0  0  0  0  0
  -16.9430   -1.2030   -1.4080 C   0  0  0  0  0  0  0  0  0  0  0  0
  -18.3840   -0.9560   -1.8060 C   0  0  0  0  0  0  0  0  0  0  0  0
  -16.2510   -2.1690   -2.1000 C   0  0  0  0  0  0  0  0  0  0  0  0
  -14.9490   -2.4160   -1.7590 C   0  0  0  0  0  0  0  0  0  0  0  0
  -11.9050   -1.5730   -1.3540 C   0  0  0  0  0  0  0  0  0  0  0  0
  -10.5280   -1.9050   -1.0240 N   0  0  0  0  0  0  0  0  0  0  0  0
   -9.4550   -1.4720   -1.9190 C   0  0  0  0  0  0  0  0  0  0  0  0
   -9.2820   -2.3940   -3.1270 C   0  0  0  0  0  0  0  0  0  0  0  0
   -7.8170   -2.5500   -3.5360 C   0  0  0  0  0  0  0  0  0  0  0  0
   -6.9720   -3.3210   -2.7550 C   0  0  0  0  0  0  0  0  0  0  0  0
   -5.6390   -3.4770   -3.1110 C   0  0  0  0  0  0  0  0  0  0  0  0
   -5.1940   -2.8390   -4.2640 C   0  0  0  0  0  0  0  0  0  0  0  0
   -6.0850   -2.0780   -5.0070 C   0  0  0  0  0  0  0  0  0  0  0  0
   -7.3470   -1.9600   -4.6270 N   0  0  0  0  0  0  0  0  0  0  0  0
  -12.1450   -0.9640   -2.3390 O   0  0  0  0  0  0  0  0  0  0  0  0
  -18.7610   -1.8760   -2.7390 F   0  0  0  0  0  0  0  0  0  0  0  0
  -18.4550    0.3250   -2.2750 F   0  0  0  0  0  0  0  0  0  0  0  0
  -19.1950   -1.1300   -0.7370 F   0  0  0  0  0  0  0  0  0  0  0  0
  -10.1467   -3.0903   -3.8357 C   0  0  0  0  0  0  0  0  0  0  0  0
  -10.1748   -2.6832   -3.5186 O   0  0  0  0  0  0  0  0  0  0  0  0
  -10.7471   -2.9983   -4.5745 C   0  0  0  0  0  0  0  0  0  0  0  0
  -10.5504   -3.6142   -3.7226 C   0  0  0  0  0  0  0  0  0  0  0  0
  -10.4683   -1.8287   -4.5163 C   0  0  0  0  0  0  0  0  0  0  0  0
  -11.0784   -2.7234   -2.8525 C   0  0  0  0  0  0  0  0  0  0  0  0
  1  2  2  0
  2  3  1  0
  2 16  1  0
  3  4  1  0
  3  6  2  0
  4  5  1  0
  6  7  1  0
  7 15  1  0
  7  8  1  0
 11 12  1  0
 12 28  1  0
 12 27  1  0
 12 26  1  0
 15 16  1  0
 15 25  2  0
 16 17  1  0
 17 18  1  0
 18 19  1  0
 18 29  1  0
 29 30  1  0
 29 31  1  0
 29 32  1  0
 31 33  1  0
 30 34  1  0
 32 34  1  0
  8  9  2  0
  9 10  1  0
 10 11  2  0
 11 13  1  0
 13 14  2  0
 14  8  1  0
 19 20  2  0
 20 21  1  0
 21 22  2  0
 22 23  1  0
 23 24  2  0
 24 19  1  0
M  END

$$$$
No_450-gen_results_new/Mpro_new_generate_500/2024-01-19-21-58-56/
     RDKit          3D

 32 34  0  0  0  0  0  0  0  0999 V2000
   -9.1300   -2.9100    0.4520 O   0  0  0  0  0  0  0  0  0  0  0  0
  -10.2490   -2.6420    0.1800 C   0  0  0  0  0  0  0  0  0  0  0  0
  -11.3800   -3.0650    1.0860 C   0  0  0  0  0  0  0  0  0  0  0  0
  -11.2000   -3.8390    2.3880 C   0  0  0  0  0  0  0  0  0  0  0  0
  -10.9900   -5.0690    2.3420 N   0  0  0  0  0  0  0  0  0  0  0  0
  -12.7310   -2.7290    0.7330 N   0  0  0  0  0  0  0  0  0  0  0  0
  -12.9960   -1.9940   -0.4510 N   0  0  0  0  0  0  0  0  0  0  0  0
  -14.3580   -1.6940   -0.7530 C   0  0  0  0  0  0  0  0  0  0  0  0
  -15.0390   -0.7180   -0.0560 C   0  0  0  0  0  0  0  0  0  0  0  0
  -16.3510   -0.4690   -0.3980 C   0  0  0  0  0  0  0  0  0  0  0  0
  -16.9430   -1.2030   -1.4080 C   0  0  0  0  0  0  0  0  0  0  0  0
  -18.3840   -0.9560   -1.8060 C   0  0  0  0  0  0  0  0  0  0  0  0
  -16.2510   -2.1690   -2.1000 C   0  0  0  0  0  0  0  0  0  0  0  0
  -14.9490   -2.4160   -1.7590 C   0  0  0  0  0  0  0  0  0  0  0  0
  -11.9050   -1.5730   -1.3540 C   0  0  0  0  0  0  0  0  0  0  0  0
  -10.5280   -1.9050   -1.0240 N   0  0  0  0  0  0  0  0  0  0  0  0
   -9.4550   -1.4720   -1.9190 C   0  0  0  0  0  0  0  0  0  0  0  0
   -9.2820   -2.3940   -3.1270 C   0  0  0  0  0  0  0  0  0  0  0  0
   -7.8170   -2.5500   -3.5360 C   0  0  0  0  0  0  0  0  0  0  0  0
   -6.9720   -3.3210   -2.7550 C   0  0  0  0  0  0  0  0  0  0  0  0
   -5.6390   -3.4770   -3.1110 C   0  0  0  0  0  0  0  0  0  0  0  0
   -5.1940   -2.8390   -4.2640 C   0  0  0  0  0  0  0  0  0  0  0  0
   -6.0850   -2.0780   -5.0070 C   0  0  0  0  0  0  0  0  0  0  0  0
   -7.3470   -1.9600   -4.6270 N   0  0  0  0  0  0  0  0  0  0  0  0
  -12.1450   -0.9640   -2.3390 O   0  0  0  0  0  0  0  0  0  0  0  0
  -18.7610   -1.8760   -2.7390 F   0  0  0  0  0  0  0  0  0  0  0  0
  -18.4550    0.3250   -2.2750 F   0  0  0  0  0  0  0  0  0  0  0  0
  -19.1950   -1.1300   -0.7370 F   0  0  0  0  0  0  0  0  0  0  0  0
  -10.0453   -2.0069   -4.3181 C   0  0  0  0  0  0  0  0  0  0  0  0
   -9.8714   -3.6444   -2.9942 F   0  0  0  0  0  0  0  0  0  0  0  0
  -10.2318   -0.7741   -4.3673 C   0  0  0  0  0  0  0  0  0  0  0  0
  -11.1354   -0.4536   -5.6801 C   0  0  0  0  0  0  0  0  0  0  0  0
  1  2  2  0
  2  3  1  0
  2 16  1  0
  3  4  1  0
  3  6  2  0
  4  5  1  0
  6  7  1  0
  7 15  1  0
  7  8  1  0
 11 12  1  0
 12 28  1  0
 12 27  1  0
 12 26  1  0
 15 16  1  0
 15 25  2  0
 16 17  1  0
 17 18  1  0
 18 19  1  0
 18 29  1  0
 18 30  1  0
 29 31  2  3
 31 32  1  0
  8  9  2  0
  9 10  1  0
 10 11  2  0
 11 13  1  0
 13 14  2  0
 14  8  1  0
 19 20  2  0
 20 21  1  0
 21 22  2  0
 22 23  1  0
 23 24  2  0
 24 19  1  0
M  END

$$$$
No_451-gen_results_new/Mpro_new_generate_500/2024-01-19-21-58-56/
     RDKit          3D

 35 37  0  0  0  0  0  0  0  0999 V2000
   -9.1300   -2.9100    0.4520 O   0  0  0  0  0  0  0  0  0  0  0  0
  -10.2490   -2.6420    0.1800 C   0  0  0  0  0  0  0  0  0  0  0  0
  -11.3800   -3.0650    1.0860 C   0  0  0  0  0  0  0  0  0  0  0  0
  -11.2000   -3.8390    2.3880 C   0  0  0  0  0  0  0  0  0  0  0  0
  -10.9900   -5.0690    2.3420 N   0  0  0  0  0  0  0  0  0  0  0  0
  -12.7310   -2.7290    0.7330 N   0  0  0  0  0  0  0  0  0  0  0  0
  -12.9960   -1.9940   -0.4510 N   0  0  0  0  0  0  0  0  0  0  0  0
  -14.3580   -1.6940   -0.7530 C   0  0  0  0  0  0  0  0  0  0  0  0
  -15.0390   -0.7180   -0.0560 C   0  0  0  0  0  0  0  0  0  0  0  0
  -16.3510   -0.4690   -0.3980 C   0  0  0  0  0  0  0  0  0  0  0  0
  -16.9430   -1.2030   -1.4080 C   0  0  0  0  0  0  0  0  0  0  0  0
  -18.3840   -0.9560   -1.8060 C   0  0  0  0  0  0  0  0  0  0  0  0
  -16.2510   -2.1690   -2.1000 C   0  0  0  0  0  0  0  0  0  0  0  0
  -14.9490   -2.4160   -1.7590 C   0  0  0  0  0  0  0  0  0  0  0  0
  -11.9050   -1.5730   -1.3540 C   0  0  0  0  0  0  0  0  0  0  0  0
  -10.5280   -1.9050   -1.0240 N   0  0  0  0  0  0  0  0  0  0  0  0
   -9.4550   -1.4720   -1.9190 C   0  0  0  0  0  0  0  0  0  0  0  0
   -9.2820   -2.3940   -3.1270 C   0  0  0  0  0  0  0  0  0  0  0  0
   -7.8170   -2.5500   -3.5360 C   0  0  0  0  0  0  0  0  0  0  0  0
   -6.9720   -3.3210   -2.7550 C   0  0  0  0  0  0  0  0  0  0  0  0
   -5.6390   -3.4770   -3.1110 C   0  0  0  0  0  0  0  0  0  0  0  0
   -5.1940   -2.8390   -4.2640 C   0  0  0  0  0  0  0  0  0  0  0  0
   -6.0850   -2.0780   -5.0070 C   0  0  0  0  0  0  0  0  0  0  0  0
   -7.3470   -1.9600   -4.6270 N   0  0  0  0  0  0  0  0  0  0  0  0
  -12.1450   -0.9640   -2.3390 O   0  0  0  0  0  0  0  0  0  0  0  0
  -18.7610   -1.8760   -2.7390 F   0  0  0  0  0  0  0  0  0  0  0  0
  -18.4550    0.3250   -2.2750 F   0  0  0  0  0  0  0  0  0  0  0  0
  -19.1950   -1.1300   -0.7370 F   0  0  0  0  0  0  0  0  0  0  0  0
  -10.0453   -2.0069   -4.3181 C   0  0  0  0  0  0  0  0  0  0  0  0
   -9.8480   -3.6882   -2.9621 O   0  0  0  0  0  0  0  0  0  0  0  0
  -10.1304   -4.5054   -4.0542 C   0  0  0  0  0  0  0  0  0  0  0  0
  -11.0387   -3.7604   -4.5445 C   0  0  0  0  0  0  0  0  0  0  0  0
  -10.0884   -1.2086   -5.2804 O   0  0  0  0  0  0  0  0  0  0  0  0
  -10.6809   -1.5952   -3.4209 O   0  0  0  0  0  0  0  0  0  0  0  0
  -11.0048   -0.9209   -4.1025 C   0  0  0  0  0  0  0  0  0  0  0  0
  1  2  2  0
  2  3  1  0
  2 16  1  0
  3  4  1  0
  3  6  2  0
  4  5  1  0
  6  7  1  0
  7 15  1  0
  7  8  1  0
 11 12  1  0
 12 28  1  0
 12 27  1  0
 12 26  1  0
 15 16  1  0
 15 25  2  0
 16 17  1  0
 17 18  1  0
 18 19  1  0
 18 29  1  0
 18 30  1  0
 30 31  1  0
 31 32  1  0
 29 33  2  0
 29 34  1  0
 34 35  1  0
  8  9  2  0
  9 10  1  0
 10 11  2  0
 11 13  1  0
 13 14  2  0
 14  8  1  0
 19 20  2  0
 20 21  1  0
 21 22  2  0
 22 23  1  0
 23 24  2  0
 24 19  1  0
M  END

$$$$
No_452-gen_results_new/Mpro_new_generate_500/2024-01-19-21-58-56/
     RDKit          3D

 35 38  0  0  0  0  0  0  0  0999 V2000
   -9.1300   -2.9100    0.4520 O   0  0  0  0  0  0  0  0  0  0  0  0
  -10.2490   -2.6420    0.1800 C   0  0  0  0  0  0  0  0  0  0  0  0
  -11.3800   -3.0650    1.0860 C   0  0  0  0  0  0  0  0  0  0  0  0
  -11.2000   -3.8390    2.3880 C   0  0  0  0  0  0  0  0  0  0  0  0
  -10.9900   -5.0690    2.3420 N   0  0  0  0  0  0  0  0  0  0  0  0
  -12.7310   -2.7290    0.7330 N   0  0  0  0  0  0  0  0  0  0  0  0
  -12.9960   -1.9940   -0.4510 N   0  0  0  0  0  0  0  0  0  0  0  0
  -14.3580   -1.6940   -0.7530 C   0  0  0  0  0  0  0  0  0  0  0  0
  -15.0390   -0.7180   -0.0560 C   0  0  0  0  0  0  0  0  0  0  0  0
  -16.3510   -0.4690   -0.3980 C   0  0  0  0  0  0  0  0  0  0  0  0
  -16.9430   -1.2030   -1.4080 C   0  0  0  0  0  0  0  0  0  0  0  0
  -18.3840   -0.9560   -1.8060 C   0  0  0  0  0  0  0  0  0  0  0  0
  -16.2510   -2.1690   -2.1000 C   0  0  0  0  0  0  0  0  0  0  0  0
  -14.9490   -2.4160   -1.7590 C   0  0  0  0  0  0  0  0  0  0  0  0
  -11.9050   -1.5730   -1.3540 C   0  0  0  0  0  0  0  0  0  0  0  0
  -10.5280   -1.9050   -1.0240 N   0  0  0  0  0  0  0  0  0  0  0  0
   -9.4550   -1.4720   -1.9190 C   0  0  0  0  0  0  0  0  0  0  0  0
   -9.2820   -2.3940   -3.1270 C   0  0  0  0  0  0  0  0  0  0  0  0
   -7.8170   -2.5500   -3.5360 C   0  0  0  0  0  0  0  0  0  0  0  0
   -6.9720   -3.3210   -2.7550 C   0  0  0  0  0  0  0  0  0  0  0  0
   -5.6390   -3.4770   -3.1110 C   0  0  0  0  0  0  0  0  0  0  0  0
   -5.1940   -2.8390   -4.2640 C   0  0  0  0  0  0  0  0  0  0  0  0
   -6.0850   -2.0780   -5.0070 C   0  0  0  0  0  0  0  0  0  0  0  0
   -7.3470   -1.9600   -4.6270 N   0  0  0  0  0  0  0  0  0  0  0  0
  -12.1450   -0.9640   -2.3390 O   0  0  0  0  0  0  0  0  0  0  0  0
  -18.7610   -1.8760   -2.7390 F   0  0  0  0  0  0  0  0  0  0  0  0
  -18.4550    0.3250   -2.2750 F   0  0  0  0  0  0  0  0  0  0  0  0
  -19.1950   -1.1300   -0.7370 F   0  0  0  0  0  0  0  0  0  0  0  0
  -10.0453   -2.0069   -4.3181 C   0  0  0  0  0  0  0  0  0  0  0  0
   -9.8480   -3.6882   -2.9621 O   0  0  0  0  0  0  0  0  0  0  0  0
  -10.1304   -4.5054   -4.0542 C   0  0  0  0  0  0  0  0  0  0  0  0
   -9.7893   -5.5377   -3.8903 O   0  0  0  0  0  0  0  0  0  0  0  0
  -10.6783   -4.0531   -4.8071 O   0  0  0  0  0  0  0  0  0  0  0  0
  -10.7931   -2.6638   -5.2809 C   0  0  0  0  0  0  0  0  0  0  0  0
  -11.3030   -2.2366   -6.4837 C   0  0  0  0  0  0  0  0  0  0  0  0
  1  2  2  0
  2  3  1  0
  2 16  1  0
  3  4  1  0
  3  6  2  0
  4  5  1  0
  6  7  1  0
  7 15  1  0
  7  8  1  0
 11 12  1  0
 12 28  1  0
 12 27  1  0
 12 26  1  0
 15 16  1  0
 15 25  2  0
 16 17  1  0
 17 18  1  0
 18 19  1  0
 18 29  1  0
 18 30  1  0
 30 31  1  0
 31 32  2  0
 31 33  1  0
 29 34  2  0
 33 34  1  0
 34 35  1  0
  8  9  2  0
  9 10  1  0
 10 11  2  0
 11 13  1  0
 13 14  2  0
 14  8  1  0
 19 20  2  0
 20 21  1  0
 21 22  2  0
 22 23  1  0
 23 24  2  0
 24 19  1  0
M  END

$$$$
No_453-gen_results_new/Mpro_new_generate_500/2024-01-19-21-58-56/
     RDKit          3D

 34 36  0  0  0  0  0  0  0  0999 V2000
   -9.1300   -2.9100    0.4520 O   0  0  0  0  0  0  0  0  0  0  0  0
  -10.2490   -2.6420    0.1800 C   0  0  0  0  0  0  0  0  0  0  0  0
  -11.3800   -3.0650    1.0860 C   0  0  0  0  0  0  0  0  0  0  0  0
  -11.2000   -3.8390    2.3880 C   0  0  0  0  0  0  0  0  0  0  0  0
  -10.9900   -5.0690    2.3420 N   0  0  0  0  0  0  0  0  0  0  0  0
  -12.7310   -2.7290    0.7330 N   0  0  0  0  0  0  0  0  0  0  0  0
  -12.9960   -1.9940   -0.4510 N   0  0  0  0  0  0  0  0  0  0  0  0
  -14.3580   -1.6940   -0.7530 C   0  0  0  0  0  0  0  0  0  0  0  0
  -15.0390   -0.7180   -0.0560 C   0  0  0  0  0  0  0  0  0  0  0  0
  -16.3510   -0.4690   -0.3980 C   0  0  0  0  0  0  0  0  0  0  0  0
  -16.9430   -1.2030   -1.4080 C   0  0  0  0  0  0  0  0  0  0  0  0
  -18.3840   -0.9560   -1.8060 C   0  0  0  0  0  0  0  0  0  0  0  0
  -16.2510   -2.1690   -2.1000 C   0  0  0  0  0  0  0  0  0  0  0  0
  -14.9490   -2.4160   -1.7590 C   0  0  0  0  0  0  0  0  0  0  0  0
  -11.9050   -1.5730   -1.3540 C   0  0  0  0  0  0  0  0  0  0  0  0
  -10.5280   -1.9050   -1.0240 N   0  0  0  0  0  0  0  0  0  0  0  0
   -9.4550   -1.4720   -1.9190 C   0  0  0  0  0  0  0  0  0  0  0  0
   -9.2820   -2.3940   -3.1270 C   0  0  0  0  0  0  0  0  0  0  0  0
   -7.8170   -2.5500   -3.5360 C   0  0  0  0  0  0  0  0  0  0  0  0
   -6.9720   -3.3210   -2.7550 C   0  0  0  0  0  0  0  0  0  0  0  0
   -5.6390   -3.4770   -3.1110 C   0  0  0  0  0  0  0  0  0  0  0  0
   -5.1940   -2.8390   -4.2640 C   0  0  0  0  0  0  0  0  0  0  0  0
   -6.0850   -2.0780   -5.0070 C   0  0  0  0  0  0  0  0  0  0  0  0
   -7.3470   -1.9600   -4.6270 N   0  0  0  0  0  0  0  0  0  0  0  0
  -12.1450   -0.9640   -2.3390 O   0  0  0  0  0  0  0  0  0  0  0  0
  -18.7610   -1.8760   -2.7390 F   0  0  0  0  0  0  0  0  0  0  0  0
  -18.4550    0.3250   -2.2750 F   0  0  0  0  0  0  0  0  0  0  0  0
  -19.1950   -1.1300   -0.7370 F   0  0  0  0  0  0  0  0  0  0  0  0
   -9.7920   -3.7475   -2.8656 C   0  0  0  0  0  0  0  0  0  0  0  0
  -10.0268   -1.9037   -4.2201 F   0  0  0  0  0  0  0  0  0  0  0  0
  -10.9887   -4.2266   -3.7265 C   0  0  0  0  0  0  0  0  0  0  0  0
  -11.3181   -5.1223   -3.1583 F   0  0  0  0  0  0  0  0  0  0  0  0
  -10.5613   -4.6186   -4.8849 F   0  0  0  0  0  0  0  0  0  0  0  0
  -11.9352   -3.2114   -3.8469 F   0  0  0  0  0  0  0  0  0  0  0  0
  1  2  2  0
  2  3  1  0
  2 16  1  0
  3  4  1  0
  3  6  2  0
  4  5  1  0
  6  7  1  0
  7 15  1  0
  7  8  1  0
 11 12  1  0
 12 28  1  0
 12 27  1  0
 12 26  1  0
 15 16  1  0
 15 25  2  0
 16 17  1  0
 17 18  1  0
 18 19  1  0
 18 29  1  0
 18 30  1  0
 29 31  1  0
 31 32  1  0
 31 33  1  0
 31 34  1  0
  8  9  2  0
  9 10  1  0
 10 11  2  0
 11 13  1  0
 13 14  2  0
 14  8  1  0
 19 20  2  0
 20 21  1  0
 21 22  2  0
 22 23  1  0
 23 24  2  0
 24 19  1  0
M  END

$$$$
No_454-gen_results_new/Mpro_new_generate_500/2024-01-19-21-58-56/
     RDKit          3D

 35 38  0  0  0  0  0  0  0  0999 V2000
   -9.1300   -2.9100    0.4520 O   0  0  0  0  0  0  0  0  0  0  0  0
  -10.2490   -2.6420    0.1800 C   0  0  0  0  0  0  0  0  0  0  0  0
  -11.3800   -3.0650    1.0860 C   0  0  0  0  0  0  0  0  0  0  0  0
  -11.2000   -3.8390    2.3880 C   0  0  0  0  0  0  0  0  0  0  0  0
  -10.9900   -5.0690    2.3420 N   0  0  0  0  0  0  0  0  0  0  0  0
  -12.7310   -2.7290    0.7330 N   0  0  0  0  0  0  0  0  0  0  0  0
  -12.9960   -1.9940   -0.4510 N   0  0  0  0  0  0  0  0  0  0  0  0
  -14.3580   -1.6940   -0.7530 C   0  0  0  0  0  0  0  0  0  0  0  0
  -15.0390   -0.7180   -0.0560 C   0  0  0  0  0  0  0  0  0  0  0  0
  -16.3510   -0.4690   -0.3980 C   0  0  0  0  0  0  0  0  0  0  0  0
  -16.9430   -1.2030   -1.4080 C   0  0  0  0  0  0  0  0  0  0  0  0
  -18.3840   -0.9560   -1.8060 C   0  0  0  0  0  0  0  0  0  0  0  0
  -16.2510   -2.1690   -2.1000 C   0  0  0  0  0  0  0  0  0  0  0  0
  -14.9490   -2.4160   -1.7590 C   0  0  0  0  0  0  0  0  0  0  0  0
  -11.9050   -1.5730   -1.3540 C   0  0  0  0  0  0  0  0  0  0  0  0
  -10.5280   -1.9050   -1.0240 N   0  0  0  0  0  0  0  0  0  0  0  0
   -9.4550   -1.4720   -1.9190 C   0  0  0  0  0  0  0  0  0  0  0  0
   -9.2820   -2.3940   -3.1270 C   0  0  0  0  0  0  0  0  0  0  0  0
   -7.8170   -2.5500   -3.5360 C   0  0  0  0  0  0  0  0  0  0  0  0
   -6.9720   -3.3210   -2.7550 C   0  0  0  0  0  0  0  0  0  0  0  0
   -5.6390   -3.4770   -3.1110 C   0  0  0  0  0  0  0  0  0  0  0  0
   -5.1940   -2.8390   -4.2640 C   0  0  0  0  0  0  0  0  0  0  0  0
   -6.0850   -2.0780   -5.0070 C   0  0  0  0  0  0  0  0  0  0  0  0
   -7.3470   -1.9600   -4.6270 N   0  0  0  0  0  0  0  0  0  0  0  0
  -12.1450   -0.9640   -2.3390 O   0  0  0  0  0  0  0  0  0  0  0  0
  -18.7610   -1.8760   -2.7390 F   0  0  0  0  0  0  0  0  0  0  0  0
  -18.4550    0.3250   -2.2750 F   0  0  0  0  0  0  0  0  0  0  0  0
  -19.1950   -1.1300   -0.7370 F   0  0  0  0  0  0  0  0  0  0  0  0
   -9.7561   -3.5765   -2.9053 O   0  0  0  0  0  0  0  0  0  0  0  0
  -10.1654   -2.2318   -4.2998 C   0  0  0  0  0  0  0  0  0  0  0  0
  -11.1514   -3.3323   -4.8277 C   0  0  0  0  0  0  0  0  0  0  0  0
  -11.6738   -3.0423   -5.7929 O   0  0  0  0  0  0  0  0  0  0  0  0
  -11.3095   -4.5135   -4.3557 O   0  0  0  0  0  0  0  0  0  0  0  0
   -9.9371   -4.5178   -3.5892 C   0  0  0  0  0  0  0  0  0  0  0  0
   -9.5763   -5.5465   -4.4643 C   0  0  0  0  0  0  0  0  0  0  0  0
  1  2  2  0
  2  3  1  0
  2 16  1  0
  3  4  1  0
  3  6  2  0
  4  5  1  0
  6  7  1  0
  7 15  1  0
  7  8  1  0
 11 12  1  0
 12 28  1  0
 12 27  1  0
 12 26  1  0
 15 16  1  0
 15 25  2  0
 16 17  1  0
 17 18  1  0
 18 19  1  0
 18 29  1  0
 18 30  1  0
 30 31  1  0
 31 32  2  0
 31 33  1  0
 29 34  1  0
 33 34  1  0
 34 35  1  0
  8  9  2  0
  9 10  1  0
 10 11  2  0
 11 13  1  0
 13 14  2  0
 14  8  1  0
 19 20  2  0
 20 21  1  0
 21 22  2  0
 22 23  1  0
 23 24  2  0
 24 19  1  0
M  END

$$$$
No_455-gen_results_new/Mpro_new_generate_500/2024-01-19-21-58-56/
     RDKit          3D

 34 37  0  0  0  0  0  0  0  0999 V2000
   -9.1300   -2.9100    0.4520 O   0  0  0  0  0  0  0  0  0  0  0  0
  -10.2490   -2.6420    0.1800 C   0  0  0  0  0  0  0  0  0  0  0  0
  -11.3800   -3.0650    1.0860 C   0  0  0  0  0  0  0  0  0  0  0  0
  -11.2000   -3.8390    2.3880 C   0  0  0  0  0  0  0  0  0  0  0  0
  -10.9900   -5.0690    2.3420 N   0  0  0  0  0  0  0  0  0  0  0  0
  -12.7310   -2.7290    0.7330 N   0  0  0  0  0  0  0  0  0  0  0  0
  -12.9960   -1.9940   -0.4510 N   0  0  0  0  0  0  0  0  0  0  0  0
  -14.3580   -1.6940   -0.7530 C   0  0  0  0  0  0  0  0  0  0  0  0
  -15.0390   -0.7180   -0.0560 C   0  0  0  0  0  0  0  0  0  0  0  0
  -16.3510   -0.4690   -0.3980 C   0  0  0  0  0  0  0  0  0  0  0  0
  -16.9430   -1.2030   -1.4080 C   0  0  0  0  0  0  0  0  0  0  0  0
  -18.3840   -0.9560   -1.8060 C   0  0  0  0  0  0  0  0  0  0  0  0
  -16.2510   -2.1690   -2.1000 C   0  0  0  0  0  0  0  0  0  0  0  0
  -14.9490   -2.4160   -1.7590 C   0  0  0  0  0  0  0  0  0  0  0  0
  -11.9050   -1.5730   -1.3540 C   0  0  0  0  0  0  0  0  0  0  0  0
  -10.5280   -1.9050   -1.0240 N   0  0  0  0  0  0  0  0  0  0  0  0
   -9.4550   -1.4720   -1.9190 C   0  0  0  0  0  0  0  0  0  0  0  0
   -9.2820   -2.3940   -3.1270 C   0  0  0  0  0  0  0  0  0  0  0  0
   -7.8170   -2.5500   -3.5360 C   0  0  0  0  0  0  0  0  0  0  0  0
   -6.9720   -3.3210   -2.7550 C   0  0  0  0  0  0  0  0  0  0  0  0
   -5.6390   -3.4770   -3.1110 C   0  0  0  0  0  0  0  0  0  0  0  0
   -5.1940   -2.8390   -4.2640 C   0  0  0  0  0  0  0  0  0  0  0  0
   -6.0850   -2.0780   -5.0070 C   0  0  0  0  0  0  0  0  0  0  0  0
   -7.3470   -1.9600   -4.6270 N   0  0  0  0  0  0  0  0  0  0  0  0
  -12.1450   -0.9640   -2.3390 O   0  0  0  0  0  0  0  0  0  0  0  0
  -18.7610   -1.8760   -2.7390 F   0  0  0  0  0  0  0  0  0  0  0  0
  -18.4550    0.3250   -2.2750 F   0  0  0  0  0  0  0  0  0  0  0  0
  -19.1950   -1.1300   -0.7370 F   0  0  0  0  0  0  0  0  0  0  0  0
   -9.7920   -3.7475   -2.8656 C   0  0  0  0  0  0  0  0  0  0  0  0
  -10.0717   -1.8029   -4.3549 C   0  0  0  0  0  0  0  0  0  0  0  0
  -10.0419   -4.6597   -4.1091 C   0  0  0  0  0  0  0  0  0  0  0  0
   -9.4794   -5.8134   -3.8778 F   0  0  0  0  0  0  0  0  0  0  0  0
   -9.9017   -4.2587   -5.2930 C   0  0  0  0  0  0  0  0  0  0  0  0
  -10.6196   -2.7359   -5.3226 C   0  0  0  0  0  0  0  0  0  0  0  0
  1  2  2  0
  2  3  1  0
  2 16  1  0
  3  4  1  0
  3  6  2  0
  4  5  1  0
  6  7  1  0
  7 15  1  0
  7  8  1  0
 11 12  1  0
 12 28  1  0
 12 27  1  0
 12 26  1  0
 15 16  1  0
 15 25  2  0
 16 17  1  0
 17 18  1  0
 18 19  1  0
 18 29  1  0
 18 30  1  0
 31 32  1  0
 31 33  1  0
 30 34  1  0
 33 34  1  0
 29 31  1  0
  8  9  2  0
  9 10  1  0
 10 11  2  0
 11 13  1  0
 13 14  2  0
 14  8  1  0
 19 20  2  0
 20 21  1  0
 21 22  2  0
 22 23  1  0
 23 24  2  0
 24 19  1  0
M  END

$$$$
No_456-gen_results_new/Mpro_new_generate_500/2024-01-19-21-58-56/
     RDKit          3D

 35 37  0  0  0  0  0  0  0  0999 V2000
   -9.1300   -2.9100    0.4520 O   0  0  0  0  0  0  0  0  0  0  0  0
  -10.2490   -2.6420    0.1800 C   0  0  0  0  0  0  0  0  0  0  0  0
  -11.3800   -3.0650    1.0860 C   0  0  0  0  0  0  0  0  0  0  0  0
  -11.2000   -3.8390    2.3880 C   0  0  0  0  0  0  0  0  0  0  0  0
  -10.9900   -5.0690    2.3420 N   0  0  0  0  0  0  0  0  0  0  0  0
  -12.7310   -2.7290    0.7330 N   0  0  0  0  0  0  0  0  0  0  0  0
  -12.9960   -1.9940   -0.4510 N   0  0  0  0  0  0  0  0  0  0  0  0
  -14.3580   -1.6940   -0.7530 C   0  0  0  0  0  0  0  0  0  0  0  0
  -15.0390   -0.7180   -0.0560 C   0  0  0  0  0  0  0  0  0  0  0  0
  -16.3510   -0.4690   -0.3980 C   0  0  0  0  0  0  0  0  0  0  0  0
  -16.9430   -1.2030   -1.4080 C   0  0  0  0  0  0  0  0  0  0  0  0
  -18.3840   -0.9560   -1.8060 C   0  0  0  0  0  0  0  0  0  0  0  0
  -16.2510   -2.1690   -2.1000 C   0  0  0  0  0  0  0  0  0  0  0  0
  -14.9490   -2.4160   -1.7590 C   0  0  0  0  0  0  0  0  0  0  0  0
  -11.9050   -1.5730   -1.3540 C   0  0  0  0  0  0  0  0  0  0  0  0
  -10.5280   -1.9050   -1.0240 N   0  0  0  0  0  0  0  0  0  0  0  0
   -9.4550   -1.4720   -1.9190 C   0  0  0  0  0  0  0  0  0  0  0  0
   -9.2820   -2.3940   -3.1270 C   0  0  0  0  0  0  0  0  0  0  0  0
   -7.8170   -2.5500   -3.5360 C   0  0  0  0  0  0  0  0  0  0  0  0
   -6.9720   -3.3210   -2.7550 C   0  0  0  0  0  0  0  0  0  0  0  0
   -5.6390   -3.4770   -3.1110 C   0  0  0  0  0  0  0  0  0  0  0  0
   -5.1940   -2.8390   -4.2640 C   0  0  0  0  0  0  0  0  0  0  0  0
   -6.0850   -2.0780   -5.0070 C   0  0  0  0  0  0  0  0  0  0  0  0
   -7.3470   -1.9600   -4.6270 N   0  0  0  0  0  0  0  0  0  0  0  0
  -12.1450   -0.9640   -2.3390 O   0  0  0  0  0  0  0  0  0  0  0  0
  -18.7610   -1.8760   -2.7390 F   0  0  0  0  0  0  0  0  0  0  0  0
  -18.4550    0.3250   -2.2750 F   0  0  0  0  0  0  0  0  0  0  0  0
  -19.1950   -1.1300   -0.7370 F   0  0  0  0  0  0  0  0  0  0  0  0
  -10.0453   -2.0069   -4.3181 C   0  0  0  0  0  0  0  0  0  0  0  0
   -9.8476   -3.8948   -2.8015 C   0  0  0  0  0  0  0  0  0  0  0  0
  -10.1714   -4.7331   -3.9309 C   0  0  0  0  0  0  0  0  0  0  0  0
  -10.8284   -4.0948   -4.9085 F   0  0  0  0  0  0  0  0  0  0  0  0
   -9.5674   -5.9213   -4.1400 C   0  0  0  0  0  0  0  0  0  0  0  0
   -8.3636   -6.0064   -5.0505 C   0  0  0  0  0  0  0  0  0  0  0  0
   -7.2069   -6.4955   -4.3487 C   0  0  0  0  0  0  0  0  0  0  0  0
  1  2  2  0
  2  3  1  0
  2 16  1  0
  3  4  1  0
  3  6  2  0
  4  5  1  0
  6  7  1  0
  7 15  1  0
  7  8  1  0
 11 12  1  0
 12 28  1  0
 12 27  1  0
 12 26  1  0
 15 16  1  0
 15 25  2  0
 16 17  1  0
 17 18  1  0
 18 19  1  0
 18 29  1  0
 18 30  1  0
 30 31  2  3
 31 32  1  0
 31 33  1  0
 33 34  1  0
 34 35  1  0
  8  9  2  0
  9 10  1  0
 10 11  2  0
 11 13  1  0
 13 14  2  0
 14  8  1  0
 19 20  2  0
 20 21  1  0
 21 22  2  0
 22 23  1  0
 23 24  2  0
 24 19  1  0
M  END

$$$$
No_457-gen_results_new/Mpro_new_generate_500/2024-01-19-21-58-56/
     RDKit          3D

 33 36  0  0  0  0  0  0  0  0999 V2000
   -9.1300   -2.9100    0.4520 O   0  0  0  0  0  0  0  0  0  0  0  0
  -10.2490   -2.6420    0.1800 C   0  0  0  0  0  0  0  0  0  0  0  0
  -11.3800   -3.0650    1.0860 C   0  0  0  0  0  0  0  0  0  0  0  0
  -11.2000   -3.8390    2.3880 C   0  0  0  0  0  0  0  0  0  0  0  0
  -10.9900   -5.0690    2.3420 N   0  0  0  0  0  0  0  0  0  0  0  0
  -12.7310   -2.7290    0.7330 N   0  0  0  0  0  0  0  0  0  0  0  0
  -12.9960   -1.9940   -0.4510 N   0  0  0  0  0  0  0  0  0  0  0  0
  -14.3580   -1.6940   -0.7530 C   0  0  0  0  0  0  0  0  0  0  0  0
  -15.0390   -0.7180   -0.0560 C   0  0  0  0  0  0  0  0  0  0  0  0
  -16.3510   -0.4690   -0.3980 C   0  0  0  0  0  0  0  0  0  0  0  0
  -16.9430   -1.2030   -1.4080 C   0  0  0  0  0  0  0  0  0  0  0  0
  -18.3840   -0.9560   -1.8060 C   0  0  0  0  0  0  0  0  0  0  0  0
  -16.2510   -2.1690   -2.1000 C   0  0  0  0  0  0  0  0  0  0  0  0
  -14.9490   -2.4160   -1.7590 C   0  0  0  0  0  0  0  0  0  0  0  0
  -11.9050   -1.5730   -1.3540 C   0  0  0  0  0  0  0  0  0  0  0  0
  -10.5280   -1.9050   -1.0240 N   0  0  0  0  0  0  0  0  0  0  0  0
   -9.4550   -1.4720   -1.9190 C   0  0  0  0  0  0  0  0  0  0  0  0
   -9.2820   -2.3940   -3.1270 C   0  0  0  0  0  0  0  0  0  0  0  0
   -7.8170   -2.5500   -3.5360 C   0  0  0  0  0  0  0  0  0  0  0  0
   -6.9720   -3.3210   -2.7550 C   0  0  0  0  0  0  0  0  0  0  0  0
   -5.6390   -3.4770   -3.1110 C   0  0  0  0  0  0  0  0  0  0  0  0
   -5.1940   -2.8390   -4.2640 C   0  0  0  0  0  0  0  0  0  0  0  0
   -6.0850   -2.0780   -5.0070 C   0  0  0  0  0  0  0  0  0  0  0  0
   -7.3470   -1.9600   -4.6270 N   0  0  0  0  0  0  0  0  0  0  0  0
  -12.1450   -0.9640   -2.3390 O   0  0  0  0  0  0  0  0  0  0  0  0
  -18.7610   -1.8760   -2.7390 F   0  0  0  0  0  0  0  0  0  0  0  0
  -18.4550    0.3250   -2.2750 F   0  0  0  0  0  0  0  0  0  0  0  0
  -19.1950   -1.1300   -0.7370 F   0  0  0  0  0  0  0  0  0  0  0  0
   -9.7920   -3.7475   -2.8656 C   0  0  0  0  0  0  0  0  0  0  0  0
  -10.1387   -2.0206   -4.2903 C   0  0  0  0  0  0  0  0  0  0  0  0
  -10.7383   -4.2958   -3.7467 C   0  0  0  0  0  0  0  0  0  0  0  0
  -11.0233   -2.9754   -4.5251 C   0  0  0  0  0  0  0  0  0  0  0  0
   -9.4807   -4.8065   -2.3230 O   0  0  0  0  0  0  0  0  0  0  0  0
  1  2  2  0
  2  3  1  0
  2 16  1  0
  3  4  1  0
  3  6  2  0
  4  5  1  0
  6  7  1  0
  7 15  1  0
  7  8  1  0
 11 12  1  0
 12 28  1  0
 12 27  1  0
 12 26  1  0
 15 16  1  0
 15 25  2  0
 16 17  1  0
 17 18  1  0
 18 19  1  0
 18 29  1  0
 18 30  1  0
 29 31  1  0
 30 32  2  0
 31 32  1  0
 29 33  2  0
  8  9  2  0
  9 10  1  0
 10 11  2  0
 11 13  1  0
 13 14  2  0
 14  8  1  0
 19 20  2  0
 20 21  1  0
 21 22  2  0
 22 23  1  0
 23 24  2  0
 24 19  1  0
M  END

$$$$
No_458-gen_results_new/Mpro_new_generate_500/2024-01-19-21-58-56/
     RDKit          3D

 34 36  0  0  0  0  0  0  0  0999 V2000
   -9.1300   -2.9100    0.4520 O   0  0  0  0  0  0  0  0  0  0  0  0
  -10.2490   -2.6420    0.1800 C   0  0  0  0  0  0  0  0  0  0  0  0
  -11.3800   -3.0650    1.0860 C   0  0  0  0  0  0  0  0  0  0  0  0
  -11.2000   -3.8390    2.3880 C   0  0  0  0  0  0  0  0  0  0  0  0
  -10.9900   -5.0690    2.3420 N   0  0  0  0  0  0  0  0  0  0  0  0
  -12.7310   -2.7290    0.7330 N   0  0  0  0  0  0  0  0  0  0  0  0
  -12.9960   -1.9940   -0.4510 N   0  0  0  0  0  0  0  0  0  0  0  0
  -14.3580   -1.6940   -0.7530 C   0  0  0  0  0  0  0  0  0  0  0  0
  -15.0390   -0.7180   -0.0560 C   0  0  0  0  0  0  0  0  0  0  0  0
  -16.3510   -0.4690   -0.3980 C   0  0  0  0  0  0  0  0  0  0  0  0
  -16.9430   -1.2030   -1.4080 C   0  0  0  0  0  0  0  0  0  0  0  0
  -18.3840   -0.9560   -1.8060 C   0  0  0  0  0  0  0  0  0  0  0  0
  -16.2510   -2.1690   -2.1000 C   0  0  0  0  0  0  0  0  0  0  0  0
  -14.9490   -2.4160   -1.7590 C   0  0  0  0  0  0  0  0  0  0  0  0
  -11.9050   -1.5730   -1.3540 C   0  0  0  0  0  0  0  0  0  0  0  0
  -10.5280   -1.9050   -1.0240 N   0  0  0  0  0  0  0  0  0  0  0  0
   -9.4550   -1.4720   -1.9190 C   0  0  0  0  0  0  0  0  0  0  0  0
   -9.2820   -2.3940   -3.1270 C   0  0  0  0  0  0  0  0  0  0  0  0
   -7.8170   -2.5500   -3.5360 C   0  0  0  0  0  0  0  0  0  0  0  0
   -6.9720   -3.3210   -2.7550 C   0  0  0  0  0  0  0  0  0  0  0  0
   -5.6390   -3.4770   -3.1110 C   0  0  0  0  0  0  0  0  0  0  0  0
   -5.1940   -2.8390   -4.2640 C   0  0  0  0  0  0  0  0  0  0  0  0
   -6.0850   -2.0780   -5.0070 C   0  0  0  0  0  0  0  0  0  0  0  0
   -7.3470   -1.9600   -4.6270 N   0  0  0  0  0  0  0  0  0  0  0  0
  -12.1450   -0.9640   -2.3390 O   0  0  0  0  0  0  0  0  0  0  0  0
  -18.7610   -1.8760   -2.7390 F   0  0  0  0  0  0  0  0  0  0  0  0
  -18.4550    0.3250   -2.2750 F   0  0  0  0  0  0  0  0  0  0  0  0
  -19.1950   -1.1300   -0.7370 F   0  0  0  0  0  0  0  0  0  0  0  0
   -9.7920   -3.7475   -2.8656 C   0  0  0  0  0  0  0  0  0  0  0  0
  -10.0717   -1.8029   -4.3549 C   0  0  0  0  0  0  0  0  0  0  0  0
  -10.8816   -4.2900   -3.6532 C   0  0  0  0  0  0  0  0  0  0  0  0
  -11.3597   -3.5156   -4.2707 F   0  0  0  0  0  0  0  0  0  0  0  0
   -9.2348   -1.5460   -5.2068 F   0  0  0  0  0  0  0  0  0  0  0  0
  -11.0301   -2.1917   -4.8428 F   0  0  0  0  0  0  0  0  0  0  0  0
  1  2  2  0
  2  3  1  0
  2 16  1  0
  3  4  1  0
  3  6  2  0
  4  5  1  0
  6  7  1  0
  7 15  1  0
  7  8  1  0
 11 12  1  0
 12 28  1  0
 12 27  1  0
 12 26  1  0
 15 16  1  0
 15 25  2  0
 16 17  1  0
 17 18  1  0
 18 19  1  0
 18 29  1  0
 18 30  1  0
 29 31  1  0
 31 32  1  0
 30 33  1  0
 30 34  1  0
  8  9  2  0
  9 10  1  0
 10 11  2  0
 11 13  1  0
 13 14  2  0
 14  8  1  0
 19 20  2  0
 20 21  1  0
 21 22  2  0
 22 23  1  0
 23 24  2  0
 24 19  1  0
M  END

$$$$
No_459-gen_results_new/Mpro_new_generate_500/2024-01-19-21-58-56/
     RDKit          3D

 35 37  0  0  0  0  0  0  0  0999 V2000
   -9.1300   -2.9100    0.4520 O   0  0  0  0  0  0  0  0  0  0  0  0
  -10.2490   -2.6420    0.1800 C   0  0  0  0  0  0  0  0  0  0  0  0
  -11.3800   -3.0650    1.0860 C   0  0  0  0  0  0  0  0  0  0  0  0
  -11.2000   -3.8390    2.3880 C   0  0  0  0  0  0  0  0  0  0  0  0
  -10.9900   -5.0690    2.3420 N   0  0  0  0  0  0  0  0  0  0  0  0
  -12.7310   -2.7290    0.7330 N   0  0  0  0  0  0  0  0  0  0  0  0
  -12.9960   -1.9940   -0.4510 N   0  0  0  0  0  0  0  0  0  0  0  0
  -14.3580   -1.6940   -0.7530 C   0  0  0  0  0  0  0  0  0  0  0  0
  -15.0390   -0.7180   -0.0560 C   0  0  0  0  0  0  0  0  0  0  0  0
  -16.3510   -0.4690   -0.3980 C   0  0  0  0  0  0  0  0  0  0  0  0
  -16.9430   -1.2030   -1.4080 C   0  0  0  0  0  0  0  0  0  0  0  0
  -18.3840   -0.9560   -1.8060 C   0  0  0  0  0  0  0  0  0  0  0  0
  -16.2510   -2.1690   -2.1000 C   0  0  0  0  0  0  0  0  0  0  0  0
  -14.9490   -2.4160   -1.7590 C   0  0  0  0  0  0  0  0  0  0  0  0
  -11.9050   -1.5730   -1.3540 C   0  0  0  0  0  0  0  0  0  0  0  0
  -10.5280   -1.9050   -1.0240 N   0  0  0  0  0  0  0  0  0  0  0  0
   -9.4550   -1.4720   -1.9190 C   0  0  0  0  0  0  0  0  0  0  0  0
   -9.2820   -2.3940   -3.1270 C   0  0  0  0  0  0  0  0  0  0  0  0
   -7.8170   -2.5500   -3.5360 C   0  0  0  0  0  0  0  0  0  0  0  0
   -6.9720   -3.3210   -2.7550 C   0  0  0  0  0  0  0  0  0  0  0  0
   -5.6390   -3.4770   -3.1110 C   0  0  0  0  0  0  0  0  0  0  0  0
   -5.1940   -2.8390   -4.2640 C   0  0  0  0  0  0  0  0  0  0  0  0
   -6.0850   -2.0780   -5.0070 C   0  0  0  0  0  0  0  0  0  0  0  0
   -7.3470   -1.9600   -4.6270 N   0  0  0  0  0  0  0  0  0  0  0  0
  -12.1450   -0.9640   -2.3390 O   0  0  0  0  0  0  0  0  0  0  0  0
  -18.7610   -1.8760   -2.7390 F   0  0  0  0  0  0  0  0  0  0  0  0
  -18.4550    0.3250   -2.2750 F   0  0  0  0  0  0  0  0  0  0  0  0
  -19.1950   -1.1300   -0.7370 F   0  0  0  0  0  0  0  0  0  0  0  0
  -10.0899   -3.0088   -3.7244 O   0  0  0  0  0  0  0  0  0  0  0  0
  -16.7844   -3.0180   -3.1233 O   0  0  0  0  0  0  0  0  0  0  0  0
  -16.5408   -4.4495   -2.9958 C   0  0  0  0  0  0  0  0  0  0  0  0
  -15.4005   -4.7138   -4.0517 C   0  0  0  0  0  0  0  0  0  0  0  0
  -14.2001   -5.2056   -3.3087 C   0  0  0  0  0  0  0  0  0  0  0  0
  -12.9885   -4.9826   -4.1374 C   0  0  0  0  0  0  0  0  0  0  0  0
  -14.0979   -5.6926   -2.1368 O   0  0  0  0  0  0  0  0  0  0  0  0
  1  2  2  0
  2  3  1  0
  2 16  1  0
  3  4  1  0
  3  6  2  0
  4  5  1  0
  6  7  1  0
  7 15  1  0
  7  8  1  0
 11 12  1  0
 12 28  1  0
 12 27  1  0
 12 26  1  0
 15 16  1  0
 15 25  2  0
 16 17  1  0
 17 18  1  0
 18 19  1  0
 18 29  2  0
 13 30  1  0
 30 31  1  0
 31 32  1  0
 32 33  1  0
 33 34  1  0
 33 35  2  0
  8  9  2  0
  9 10  1  0
 10 11  2  0
 11 13  1  0
 13 14  2  0
 14  8  1  0
 19 20  2  0
 20 21  1  0
 21 22  2  0
 22 23  1  0
 23 24  2  0
 24 19  1  0
M  END

$$$$
No_460-gen_results_new/Mpro_new_generate_500/2024-01-19-21-58-56/
     RDKit          3D

 35 37  0  0  0  0  0  0  0  0999 V2000
   -9.1300   -2.9100    0.4520 O   0  0  0  0  0  0  0  0  0  0  0  0
  -10.2490   -2.6420    0.1800 C   0  0  0  0  0  0  0  0  0  0  0  0
  -11.3800   -3.0650    1.0860 C   0  0  0  0  0  0  0  0  0  0  0  0
  -11.2000   -3.8390    2.3880 C   0  0  0  0  0  0  0  0  0  0  0  0
  -10.9900   -5.0690    2.3420 N   0  0  0  0  0  0  0  0  0  0  0  0
  -12.7310   -2.7290    0.7330 N   0  0  0  0  0  0  0  0  0  0  0  0
  -12.9960   -1.9940   -0.4510 N   0  0  0  0  0  0  0  0  0  0  0  0
  -14.3580   -1.6940   -0.7530 C   0  0  0  0  0  0  0  0  0  0  0  0
  -15.0390   -0.7180   -0.0560 C   0  0  0  0  0  0  0  0  0  0  0  0
  -16.3510   -0.4690   -0.3980 C   0  0  0  0  0  0  0  0  0  0  0  0
  -16.9430   -1.2030   -1.4080 C   0  0  0  0  0  0  0  0  0  0  0  0
  -18.3840   -0.9560   -1.8060 C   0  0  0  0  0  0  0  0  0  0  0  0
  -16.2510   -2.1690   -2.1000 C   0  0  0  0  0  0  0  0  0  0  0  0
  -14.9490   -2.4160   -1.7590 C   0  0  0  0  0  0  0  0  0  0  0  0
  -11.9050   -1.5730   -1.3540 C   0  0  0  0  0  0  0  0  0  0  0  0
  -10.5280   -1.9050   -1.0240 N   0  0  0  0  0  0  0  0  0  0  0  0
   -9.4550   -1.4720   -1.9190 C   0  0  0  0  0  0  0  0  0  0  0  0
   -9.2820   -2.3940   -3.1270 C   0  0  0  0  0  0  0  0  0  0  0  0
   -7.8170   -2.5500   -3.5360 C   0  0  0  0  0  0  0  0  0  0  0  0
   -6.9720   -3.3210   -2.7550 C   0  0  0  0  0  0  0  0  0  0  0  0
   -5.6390   -3.4770   -3.1110 C   0  0  0  0  0  0  0  0  0  0  0  0
   -5.1940   -2.8390   -4.2640 C   0  0  0  0  0  0  0  0  0  0  0  0
   -6.0850   -2.0780   -5.0070 C   0  0  0  0  0  0  0  0  0  0  0  0
   -7.3470   -1.9600   -4.6270 N   0  0  0  0  0  0  0  0  0  0  0  0
  -12.1450   -0.9640   -2.3390 O   0  0  0  0  0  0  0  0  0  0  0  0
  -18.7610   -1.8760   -2.7390 F   0  0  0  0  0  0  0  0  0  0  0  0
  -18.4550    0.3250   -2.2750 F   0  0  0  0  0  0  0  0  0  0  0  0
  -19.1950   -1.1300   -0.7370 F   0  0  0  0  0  0  0  0  0  0  0  0
   -9.6560   -3.6380   -2.7665 F   0  0  0  0  0  0  0  0  0  0  0  0
  -10.0460   -1.9845   -4.1698 F   0  0  0  0  0  0  0  0  0  0  0  0
  -16.7841   -3.0194   -3.1226 O   0  0  0  0  0  0  0  0  0  0  0  0
  -16.5479   -4.4512   -2.9918 C   0  0  0  0  0  0  0  0  0  0  0  0
  -15.4053   -4.7174   -4.0497 C   0  0  0  0  0  0  0  0  0  0  0  0
  -14.4555   -5.7564   -3.4676 C   0  0  0  0  0  0  0  0  0  0  0  0
  -13.4738   -6.0395   -4.2721 N   0  0  0  0  0  0  0  0  0  0  0  0
  1  2  2  0
  2  3  1  0
  2 16  1  0
  3  4  1  0
  3  6  2  0
  4  5  1  0
  6  7  1  0
  7 15  1  0
  7  8  1  0
 11 12  1  0
 12 28  1  0
 12 27  1  0
 12 26  1  0
 15 16  1  0
 15 25  2  0
 16 17  1  0
 17 18  1  0
 18 19  1  0
 18 29  1  0
 18 30  1  0
 13 31  1  0
 31 32  1  0
 32 33  1  0
 33 34  2  3
 34 35  1  0
  8  9  2  0
  9 10  1  0
 10 11  2  0
 11 13  1  0
 13 14  2  0
 14  8  1  0
 19 20  2  0
 20 21  1  0
 21 22  2  0
 22 23  1  0
 23 24  2  0
 24 19  1  0
M  END

$$$$
No_461-gen_results_new/Mpro_new_generate_500/2024-01-19-21-58-56/
     RDKit          3D

 33 35  0  0  0  0  0  0  0  0999 V2000
   -9.1300   -2.9100    0.4520 O   0  0  0  0  0  0  0  0  0  0  0  0
  -10.2490   -2.6420    0.1800 C   0  0  0  0  0  0  0  0  0  0  0  0
  -11.3800   -3.0650    1.0860 C   0  0  0  0  0  0  0  0  0  0  0  0
  -11.2000   -3.8390    2.3880 C   0  0  0  0  0  0  0  0  0  0  0  0
  -10.9900   -5.0690    2.3420 N   0  0  0  0  0  0  0  0  0  0  0  0
  -12.7310   -2.7290    0.7330 N   0  0  0  0  0  0  0  0  0  0  0  0
  -12.9960   -1.9940   -0.4510 N   0  0  0  0  0  0  0  0  0  0  0  0
  -14.3580   -1.6940   -0.7530 C   0  0  0  0  0  0  0  0  0  0  0  0
  -15.0390   -0.7180   -0.0560 C   0  0  0  0  0  0  0  0  0  0  0  0
  -16.3510   -0.4690   -0.3980 C   0  0  0  0  0  0  0  0  0  0  0  0
  -16.9430   -1.2030   -1.4080 C   0  0  0  0  0  0  0  0  0  0  0  0
  -18.3840   -0.9560   -1.8060 C   0  0  0  0  0  0  0  0  0  0  0  0
  -16.2510   -2.1690   -2.1000 C   0  0  0  0  0  0  0  0  0  0  0  0
  -14.9490   -2.4160   -1.7590 C   0  0  0  0  0  0  0  0  0  0  0  0
  -11.9050   -1.5730   -1.3540 C   0  0  0  0  0  0  0  0  0  0  0  0
  -10.5280   -1.9050   -1.0240 N   0  0  0  0  0  0  0  0  0  0  0  0
   -9.4550   -1.4720   -1.9190 C   0  0  0  0  0  0  0  0  0  0  0  0
   -9.2820   -2.3940   -3.1270 C   0  0  0  0  0  0  0  0  0  0  0  0
   -7.8170   -2.5500   -3.5360 C   0  0  0  0  0  0  0  0  0  0  0  0
   -6.9720   -3.3210   -2.7550 C   0  0  0  0  0  0  0  0  0  0  0  0
   -5.6390   -3.4770   -3.1110 C   0  0  0  0  0  0  0  0  0  0  0  0
   -5.1940   -2.8390   -4.2640 C   0  0  0  0  0  0  0  0  0  0  0  0
   -6.0850   -2.0780   -5.0070 C   0  0  0  0  0  0  0  0  0  0  0  0
   -7.3470   -1.9600   -4.6270 N   0  0  0  0  0  0  0  0  0  0  0  0
  -12.1450   -0.9640   -2.3390 O   0  0  0  0  0  0  0  0  0  0  0  0
  -18.7610   -1.8760   -2.7390 F   0  0  0  0  0  0  0  0  0  0  0  0
  -18.4550    0.3250   -2.2750 F   0  0  0  0  0  0  0  0  0  0  0  0
  -19.1950   -1.1300   -0.7370 F   0  0  0  0  0  0  0  0  0  0  0  0
  -10.0453   -2.0069   -4.3181 C   0  0  0  0  0  0  0  0  0  0  0  0
   -9.8476   -3.8948   -2.8015 C   0  0  0  0  0  0  0  0  0  0  0  0
   -9.1680   -4.8526   -2.1325 C   0  0  0  0  0  0  0  0  0  0  0  0
  -11.5001   -4.3436   -3.1847 Cl  0  0  0  0  0  0  0  0  0  0  0  0
   -8.2263   -5.3716   -2.7269 F   0  0  0  0  0  0  0  0  0  0  0  0
  1  2  2  0
  2  3  1  0
  2 16  1  0
  3  4  1  0
  3  6  2  0
  4  5  1  0
  6  7  1  0
  7 15  1  0
  7  8  1  0
 11 12  1  0
 12 28  1  0
 12 27  1  0
 12 26  1  0
 15 16  1  0
 15 25  2  0
 16 17  1  0
 17 18  1  0
 18 19  1  0
 18 29  1  0
 18 30  1  0
 30 31  2  3
 30 32  1  0
 31 33  1  0
  8  9  2  0
  9 10  1  0
 10 11  2  0
 11 13  1  0
 13 14  2  0
 14  8  1  0
 19 20  2  0
 20 21  1  0
 21 22  2  0
 22 23  1  0
 23 24  2  0
 24 19  1  0
M  END

$$$$
No_462-gen_results_new/Mpro_new_generate_500/2024-01-19-21-58-56/
     RDKit          3D

 35 37  0  0  0  0  0  0  0  0999 V2000
   -9.1300   -2.9100    0.4520 O   0  0  0  0  0  0  0  0  0  0  0  0
  -10.2490   -2.6420    0.1800 C   0  0  0  0  0  0  0  0  0  0  0  0
  -11.3800   -3.0650    1.0860 C   0  0  0  0  0  0  0  0  0  0  0  0
  -11.2000   -3.8390    2.3880 C   0  0  0  0  0  0  0  0  0  0  0  0
  -10.9900   -5.0690    2.3420 N   0  0  0  0  0  0  0  0  0  0  0  0
  -12.7310   -2.7290    0.7330 N   0  0  0  0  0  0  0  0  0  0  0  0
  -12.9960   -1.9940   -0.4510 N   0  0  0  0  0  0  0  0  0  0  0  0
  -14.3580   -1.6940   -0.7530 C   0  0  0  0  0  0  0  0  0  0  0  0
  -15.0390   -0.7180   -0.0560 C   0  0  0  0  0  0  0  0  0  0  0  0
  -16.3510   -0.4690   -0.3980 C   0  0  0  0  0  0  0  0  0  0  0  0
  -16.9430   -1.2030   -1.4080 C   0  0  0  0  0  0  0  0  0  0  0  0
  -18.3840   -0.9560   -1.8060 C   0  0  0  0  0  0  0  0  0  0  0  0
  -16.2510   -2.1690   -2.1000 C   0  0  0  0  0  0  0  0  0  0  0  0
  -14.9490   -2.4160   -1.7590 C   0  0  0  0  0  0  0  0  0  0  0  0
  -11.9050   -1.5730   -1.3540 C   0  0  0  0  0  0  0  0  0  0  0  0
  -10.5280   -1.9050   -1.0240 N   0  0  0  0  0  0  0  0  0  0  0  0
   -9.4550   -1.4720   -1.9190 C   0  0  0  0  0  0  0  0  0  0  0  0
   -9.2820   -2.3940   -3.1270 C   0  0  0  0  0  0  0  0  0  0  0  0
   -7.8170   -2.5500   -3.5360 C   0  0  0  0  0  0  0  0  0  0  0  0
   -6.9720   -3.3210   -2.7550 C   0  0  0  0  0  0  0  0  0  0  0  0
   -5.6390   -3.4770   -3.1110 C   0  0  0  0  0  0  0  0  0  0  0  0
   -5.1940   -2.8390   -4.2640 C   0  0  0  0  0  0  0  0  0  0  0  0
   -6.0850   -2.0780   -5.0070 C   0  0  0  0  0  0  0  0  0  0  0  0
   -7.3470   -1.9600   -4.6270 N   0  0  0  0  0  0  0  0  0  0  0  0
  -12.1450   -0.9640   -2.3390 O   0  0  0  0  0  0  0  0  0  0  0  0
  -18.7610   -1.8760   -2.7390 F   0  0  0  0  0  0  0  0  0  0  0  0
  -18.4550    0.3250   -2.2750 F   0  0  0  0  0  0  0  0  0  0  0  0
  -19.1950   -1.1300   -0.7370 F   0  0  0  0  0  0  0  0  0  0  0  0
   -9.7920   -3.7475   -2.8656 C   0  0  0  0  0  0  0  0  0  0  0  0
  -10.0717   -1.8029   -4.3549 C   0  0  0  0  0  0  0  0  0  0  0  0
   -9.7726   -4.4777   -3.9161 F   0  0  0  0  0  0  0  0  0  0  0  0
  -11.1595   -3.6321   -2.5788 F   0  0  0  0  0  0  0  0  0  0  0  0
   -9.1751   -4.5166   -1.6669 C   0  0  0  0  0  0  0  0  0  0  0  0
   -9.8029   -5.6953   -1.2648 C   0  0  0  0  0  0  0  0  0  0  0  0
   -7.8922   -5.2654   -1.9203 C   0  0  0  0  0  0  0  0  0  0  0  0
  1  2  2  0
  2  3  1  0
  2 16  1  0
  3  4  1  0
  3  6  2  0
  4  5  1  0
  6  7  1  0
  7 15  1  0
  7  8  1  0
 11 12  1  0
 12 28  1  0
 12 27  1  0
 12 26  1  0
 15 16  1  0
 15 25  2  0
 16 17  1  0
 17 18  1  0
 18 19  1  0
 18 29  1  0
 18 30  1  0
 29 31  1  0
 29 32  1  0
 29 33  1  0
 33 34  2  0
 33 35  1  0
  8  9  2  0
  9 10  1  0
 10 11  2  0
 11 13  1  0
 13 14  2  0
 14  8  1  0
 19 20  2  0
 20 21  1  0
 21 22  2  0
 22 23  1  0
 23 24  2  0
 24 19  1  0
M  END

$$$$
No_463-gen_results_new/Mpro_new_generate_500/2024-01-19-21-58-56/
     RDKit          3D

 33 36  0  0  0  0  0  0  0  0999 V2000
   -9.1300   -2.9100    0.4520 O   0  0  0  0  0  0  0  0  0  0  0  0
  -10.2490   -2.6420    0.1800 C   0  0  0  0  0  0  0  0  0  0  0  0
  -11.3800   -3.0650    1.0860 C   0  0  0  0  0  0  0  0  0  0  0  0
  -11.2000   -3.8390    2.3880 C   0  0  0  0  0  0  0  0  0  0  0  0
  -10.9900   -5.0690    2.3420 N   0  0  0  0  0  0  0  0  0  0  0  0
  -12.7310   -2.7290    0.7330 N   0  0  0  0  0  0  0  0  0  0  0  0
  -12.9960   -1.9940   -0.4510 N   0  0  0  0  0  0  0  0  0  0  0  0
  -14.3580   -1.6940   -0.7530 C   0  0  0  0  0  0  0  0  0  0  0  0
  -15.0390   -0.7180   -0.0560 C   0  0  0  0  0  0  0  0  0  0  0  0
  -16.3510   -0.4690   -0.3980 C   0  0  0  0  0  0  0  0  0  0  0  0
  -16.9430   -1.2030   -1.4080 C   0  0  0  0  0  0  0  0  0  0  0  0
  -18.3840   -0.9560   -1.8060 C   0  0  0  0  0  0  0  0  0  0  0  0
  -16.2510   -2.1690   -2.1000 C   0  0  0  0  0  0  0  0  0  0  0  0
  -14.9490   -2.4160   -1.7590 C   0  0  0  0  0  0  0  0  0  0  0  0
  -11.9050   -1.5730   -1.3540 C   0  0  0  0  0  0  0  0  0  0  0  0
  -10.5280   -1.9050   -1.0240 N   0  0  0  0  0  0  0  0  0  0  0  0
   -9.4550   -1.4720   -1.9190 C   0  0  0  0  0  0  0  0  0  0  0  0
   -9.2820   -2.3940   -3.1270 C   0  0  0  0  0  0  0  0  0  0  0  0
   -7.8170   -2.5500   -3.5360 C   0  0  0  0  0  0  0  0  0  0  0  0
   -6.9720   -3.3210   -2.7550 C   0  0  0  0  0  0  0  0  0  0  0  0
   -5.6390   -3.4770   -3.1110 C   0  0  0  0  0  0  0  0  0  0  0  0
   -5.1940   -2.8390   -4.2640 C   0  0  0  0  0  0  0  0  0  0  0  0
   -6.0850   -2.0780   -5.0070 C   0  0  0  0  0  0  0  0  0  0  0  0
   -7.3470   -1.9600   -4.6270 N   0  0  0  0  0  0  0  0  0  0  0  0
  -12.1450   -0.9640   -2.3390 O   0  0  0  0  0  0  0  0  0  0  0  0
  -18.7610   -1.8760   -2.7390 F   0  0  0  0  0  0  0  0  0  0  0  0
  -18.4550    0.3250   -2.2750 F   0  0  0  0  0  0  0  0  0  0  0  0
  -19.1950   -1.1300   -0.7370 F   0  0  0  0  0  0  0  0  0  0  0  0
  -10.1467   -3.0903   -3.8357 C   0  0  0  0  0  0  0  0  0  0  0  0
  -10.1176   -2.2481   -3.6828 S   0  0  0  0  0  0  0  0  0  0  0  0
   -9.7170   -1.4773   -5.1221 O   0  0  0  0  0  0  0  0  0  0  0  0
  -11.6663   -2.1547   -4.0658 C   0  0  0  0  0  0  0  0  0  0  0  0
  -10.1290   -1.1924   -3.6411 O   0  0  0  0  0  0  0  0  0  0  0  0
  1  2  2  0
  2  3  1  0
  2 16  1  0
  3  4  1  0
  3  6  2  0
  4  5  1  0
  6  7  1  0
  7 15  1  0
  7  8  1  0
 11 12  1  0
 12 28  1  0
 12 27  1  0
 12 26  1  0
 15 16  1  0
 15 25  2  0
 16 17  1  0
 17 18  1  0
 18 19  1  0
 18 29  1  0
 18 30  1  0
 30 31  2  0
 29 32  1  0
 30 32  1  0
 30 33  2  0
  8  9  2  0
  9 10  1  0
 10 11  2  0
 11 13  1  0
 13 14  2  0
 14  8  1  0
 19 20  2  0
 20 21  1  0
 21 22  2  0
 22 23  1  0
 23 24  2  0
 24 19  1  0
M  END

$$$$
No_464-gen_results_new/Mpro_new_generate_500/2024-01-19-21-58-56/
     RDKit          3D

 35 38  0  0  0  0  0  0  0  0999 V2000
   -9.1300   -2.9100    0.4520 O   0  0  0  0  0  0  0  0  0  0  0  0
  -10.2490   -2.6420    0.1800 C   0  0  0  0  0  0  0  0  0  0  0  0
  -11.3800   -3.0650    1.0860 C   0  0  0  0  0  0  0  0  0  0  0  0
  -11.2000   -3.8390    2.3880 C   0  0  0  0  0  0  0  0  0  0  0  0
  -10.9900   -5.0690    2.3420 N   0  0  0  0  0  0  0  0  0  0  0  0
  -12.7310   -2.7290    0.7330 N   0  0  0  0  0  0  0  0  0  0  0  0
  -12.9960   -1.9940   -0.4510 N   0  0  0  0  0  0  0  0  0  0  0  0
  -14.3580   -1.6940   -0.7530 C   0  0  0  0  0  0  0  0  0  0  0  0
  -15.0390   -0.7180   -0.0560 C   0  0  0  0  0  0  0  0  0  0  0  0
  -16.3510   -0.4690   -0.3980 C   0  0  0  0  0  0  0  0  0  0  0  0
  -16.9430   -1.2030   -1.4080 C   0  0  0  0  0  0  0  0  0  0  0  0
  -18.3840   -0.9560   -1.8060 C   0  0  0  0  0  0  0  0  0  0  0  0
  -16.2510   -2.1690   -2.1000 C   0  0  0  0  0  0  0  0  0  0  0  0
  -14.9490   -2.4160   -1.7590 C   0  0  0  0  0  0  0  0  0  0  0  0
  -11.9050   -1.5730   -1.3540 C   0  0  0  0  0  0  0  0  0  0  0  0
  -10.5280   -1.9050   -1.0240 N   0  0  0  0  0  0  0  0  0  0  0  0
   -9.4550   -1.4720   -1.9190 C   0  0  0  0  0  0  0  0  0  0  0  0
   -9.2820   -2.3940   -3.1270 C   0  0  0  0  0  0  0  0  0  0  0  0
   -7.8170   -2.5500   -3.5360 C   0  0  0  0  0  0  0  0  0  0  0  0
   -6.9720   -3.3210   -2.7550 C   0  0  0  0  0  0  0  0  0  0  0  0
   -5.6390   -3.4770   -3.1110 C   0  0  0  0  0  0  0  0  0  0  0  0
   -5.1940   -2.8390   -4.2640 C   0  0  0  0  0  0  0  0  0  0  0  0
   -6.0850   -2.0780   -5.0070 C   0  0  0  0  0  0  0  0  0  0  0  0
   -7.3470   -1.9600   -4.6270 N   0  0  0  0  0  0  0  0  0  0  0  0
  -12.1450   -0.9640   -2.3390 O   0  0  0  0  0  0  0  0  0  0  0  0
  -18.7610   -1.8760   -2.7390 F   0  0  0  0  0  0  0  0  0  0  0  0
  -18.4550    0.3250   -2.2750 F   0  0  0  0  0  0  0  0  0  0  0  0
  -19.1950   -1.1300   -0.7370 F   0  0  0  0  0  0  0  0  0  0  0  0
   -9.7920   -3.7475   -2.8656 C   0  0  0  0  0  0  0  0  0  0  0  0
  -10.0717   -1.8029   -4.3549 C   0  0  0  0  0  0  0  0  0  0  0  0
  -10.8816   -4.2900   -3.6532 C   0  0  0  0  0  0  0  0  0  0  0  0
  -12.0097   -4.6997   -3.2143 F   0  0  0  0  0  0  0  0  0  0  0  0
  -10.4590   -5.6402   -4.0884 F   0  0  0  0  0  0  0  0  0  0  0  0
  -11.1179   -3.3525   -4.9006 C   0  0  0  0  0  0  0  0  0  0  0  0
  -10.2686   -0.7483   -5.0712 C   0  0  0  0  0  0  0  0  0  0  0  0
  1  2  2  0
  2  3  1  0
  2 16  1  0
  3  4  1  0
  3  6  2  0
  4  5  1  0
  6  7  1  0
  7 15  1  0
  7  8  1  0
 11 12  1  0
 12 28  1  0
 12 27  1  0
 12 26  1  0
 15 16  1  0
 15 25  2  0
 16 17  1  0
 17 18  1  0
 18 19  1  0
 18 29  1  0
 18 30  1  0
 29 31  1  0
 31 32  1  0
 31 33  1  0
 30 34  1  0
 31 34  1  0
 30 35  1  0
  8  9  2  0
  9 10  1  0
 10 11  2  0
 11 13  1  0
 13 14  2  0
 14  8  1  0
 19 20  2  0
 20 21  1  0
 21 22  2  0
 22 23  1  0
 23 24  2  0
 24 19  1  0
M  END

$$$$
No_465-gen_results_new/Mpro_new_generate_500/2024-01-19-21-58-56/
     RDKit          3D

 35 37  0  0  0  0  0  0  0  0999 V2000
   -9.1300   -2.9100    0.4520 O   0  0  0  0  0  0  0  0  0  0  0  0
  -10.2490   -2.6420    0.1800 C   0  0  0  0  0  0  0  0  0  0  0  0
  -11.3800   -3.0650    1.0860 C   0  0  0  0  0  0  0  0  0  0  0  0
  -11.2000   -3.8390    2.3880 C   0  0  0  0  0  0  0  0  0  0  0  0
  -10.9900   -5.0690    2.3420 N   0  0  0  0  0  0  0  0  0  0  0  0
  -12.7310   -2.7290    0.7330 N   0  0  0  0  0  0  0  0  0  0  0  0
  -12.9960   -1.9940   -0.4510 N   0  0  0  0  0  0  0  0  0  0  0  0
  -14.3580   -1.6940   -0.7530 C   0  0  0  0  0  0  0  0  0  0  0  0
  -15.0390   -0.7180   -0.0560 C   0  0  0  0  0  0  0  0  0  0  0  0
  -16.3510   -0.4690   -0.3980 C   0  0  0  0  0  0  0  0  0  0  0  0
  -16.9430   -1.2030   -1.4080 C   0  0  0  0  0  0  0  0  0  0  0  0
  -18.3840   -0.9560   -1.8060 C   0  0  0  0  0  0  0  0  0  0  0  0
  -16.2510   -2.1690   -2.1000 C   0  0  0  0  0  0  0  0  0  0  0  0
  -14.9490   -2.4160   -1.7590 C   0  0  0  0  0  0  0  0  0  0  0  0
  -11.9050   -1.5730   -1.3540 C   0  0  0  0  0  0  0  0  0  0  0  0
  -10.5280   -1.9050   -1.0240 N   0  0  0  0  0  0  0  0  0  0  0  0
   -9.4550   -1.4720   -1.9190 C   0  0  0  0  0  0  0  0  0  0  0  0
   -9.2820   -2.3940   -3.1270 C   0  0  0  0  0  0  0  0  0  0  0  0
   -7.8170   -2.5500   -3.5360 C   0  0  0  0  0  0  0  0  0  0  0  0
   -6.9720   -3.3210   -2.7550 C   0  0  0  0  0  0  0  0  0  0  0  0
   -5.6390   -3.4770   -3.1110 C   0  0  0  0  0  0  0  0  0  0  0  0
   -5.1940   -2.8390   -4.2640 C   0  0  0  0  0  0  0  0  0  0  0  0
   -6.0850   -2.0780   -5.0070 C   0  0  0  0  0  0  0  0  0  0  0  0
   -7.3470   -1.9600   -4.6270 N   0  0  0  0  0  0  0  0  0  0  0  0
  -12.1450   -0.9640   -2.3390 O   0  0  0  0  0  0  0  0  0  0  0  0
  -18.7610   -1.8760   -2.7390 F   0  0  0  0  0  0  0  0  0  0  0  0
  -18.4550    0.3250   -2.2750 F   0  0  0  0  0  0  0  0  0  0  0  0
  -19.1950   -1.1300   -0.7370 F   0  0  0  0  0  0  0  0  0  0  0  0
  -10.0453   -2.0069   -4.3181 C   0  0  0  0  0  0  0  0  0  0  0  0
   -9.7809   -3.8139   -2.5967 C   0  0  0  0  0  0  0  0  0  0  0  0
   -9.9864   -4.7821   -3.8205 C   0  0  0  0  0  0  0  0  0  0  0  0
  -11.1291   -5.0254   -4.4782 C   0  0  0  0  0  0  0  0  0  0  0  0
  -11.0738   -5.6599   -5.7942 C   0  0  0  0  0  0  0  0  0  0  0  0
  -12.2238   -6.0313   -6.3122 O   0  0  0  0  0  0  0  0  0  0  0  0
   -9.8643   -5.9722   -6.4029 C   0  0  0  0  0  0  0  0  0  0  0  0
  1  2  2  0
  2  3  1  0
  2 16  1  0
  3  4  1  0
  3  6  2  0
  4  5  1  0
  6  7  1  0
  7 15  1  0
  7  8  1  0
 11 12  1  0
 12 28  1  0
 12 27  1  0
 12 26  1  0
 15 16  1  0
 15 25  2  0
 16 17  1  0
 17 18  1  0
 18 19  1  0
 18 29  1  0
 18 30  1  0
 30 31  1  0
 31 32  1  0
 32 33  1  0
 33 34  2  0
 33 35  1  0
  8  9  2  0
  9 10  1  0
 10 11  2  0
 11 13  1  0
 13 14  2  0
 14  8  1  0
 19 20  2  0
 20 21  1  0
 21 22  2  0
 22 23  1  0
 23 24  2  0
 24 19  1  0
M  END

$$$$
No_466-gen_results_new/Mpro_new_generate_500/2024-01-19-21-58-56/
     RDKit          3D

 34 36  0  0  0  0  0  0  0  0999 V2000
   -9.1300   -2.9100    0.4520 O   0  0  0  0  0  0  0  0  0  0  0  0
  -10.2490   -2.6420    0.1800 C   0  0  0  0  0  0  0  0  0  0  0  0
  -11.3800   -3.0650    1.0860 C   0  0  0  0  0  0  0  0  0  0  0  0
  -11.2000   -3.8390    2.3880 C   0  0  0  0  0  0  0  0  0  0  0  0
  -10.9900   -5.0690    2.3420 N   0  0  0  0  0  0  0  0  0  0  0  0
  -12.7310   -2.7290    0.7330 N   0  0  0  0  0  0  0  0  0  0  0  0
  -12.9960   -1.9940   -0.4510 N   0  0  0  0  0  0  0  0  0  0  0  0
  -14.3580   -1.6940   -0.7530 C   0  0  0  0  0  0  0  0  0  0  0  0
  -15.0390   -0.7180   -0.0560 C   0  0  0  0  0  0  0  0  0  0  0  0
  -16.3510   -0.4690   -0.3980 C   0  0  0  0  0  0  0  0  0  0  0  0
  -16.9430   -1.2030   -1.4080 C   0  0  0  0  0  0  0  0  0  0  0  0
  -18.3840   -0.9560   -1.8060 C   0  0  0  0  0  0  0  0  0  0  0  0
  -16.2510   -2.1690   -2.1000 C   0  0  0  0  0  0  0  0  0  0  0  0
  -14.9490   -2.4160   -1.7590 C   0  0  0  0  0  0  0  0  0  0  0  0
  -11.9050   -1.5730   -1.3540 C   0  0  0  0  0  0  0  0  0  0  0  0
  -10.5280   -1.9050   -1.0240 N   0  0  0  0  0  0  0  0  0  0  0  0
   -9.4550   -1.4720   -1.9190 C   0  0  0  0  0  0  0  0  0  0  0  0
   -9.2820   -2.3940   -3.1270 C   0  0  0  0  0  0  0  0  0  0  0  0
   -7.8170   -2.5500   -3.5360 C   0  0  0  0  0  0  0  0  0  0  0  0
   -6.9720   -3.3210   -2.7550 C   0  0  0  0  0  0  0  0  0  0  0  0
   -5.6390   -3.4770   -3.1110 C   0  0  0  0  0  0  0  0  0  0  0  0
   -5.1940   -2.8390   -4.2640 C   0  0  0  0  0  0  0  0  0  0  0  0
   -6.0850   -2.0780   -5.0070 C   0  0  0  0  0  0  0  0  0  0  0  0
   -7.3470   -1.9600   -4.6270 N   0  0  0  0  0  0  0  0  0  0  0  0
  -12.1450   -0.9640   -2.3390 O   0  0  0  0  0  0  0  0  0  0  0  0
  -18.7610   -1.8760   -2.7390 F   0  0  0  0  0  0  0  0  0  0  0  0
  -18.4550    0.3250   -2.2750 F   0  0  0  0  0  0  0  0  0  0  0  0
  -19.1950   -1.1300   -0.7370 F   0  0  0  0  0  0  0  0  0  0  0  0
   -9.7561   -3.5765   -2.9053 O   0  0  0  0  0  0  0  0  0  0  0  0
  -16.7852   -3.0181   -3.1231 O   0  0  0  0  0  0  0  0  0  0  0  0
  -17.1290   -2.7860   -4.2711 C   0  0  0  0  0  0  0  0  0  0  0  0
  -18.8570   -2.8447   -3.9303 C   0  0  0  0  0  0  0  0  0  0  0  0
  -19.6849   -2.9865   -4.5594 O   0  0  0  0  0  0  0  0  0  0  0  0
  -19.0335   -3.9016   -3.4490 C   0  0  0  0  0  0  0  0  0  0  0  0
  1  2  2  0
  2  3  1  0
  2 16  1  0
  3  4  1  0
  3  6  2  0
  4  5  1  0
  6  7  1  0
  7 15  1  0
  7  8  1  0
 11 12  1  0
 12 28  1  0
 12 27  1  0
 12 26  1  0
 15 16  1  0
 15 25  2  0
 16 17  1  0
 17 18  1  0
 18 19  1  0
 18 29  2  0
 13 30  1  0
 30 31  1  0
 31 32  1  0
 32 33  2  0
 32 34  1  0
  8  9  2  0
  9 10  1  0
 10 11  2  0
 11 13  1  0
 13 14  2  0
 14  8  1  0
 19 20  2  0
 20 21  1  0
 21 22  2  0
 22 23  1  0
 23 24  2  0
 24 19  1  0
M  END

$$$$
No_467-gen_results_new/Mpro_new_generate_500/2024-01-19-21-58-56/
     RDKit          3D

 34 36  0  0  0  0  0  0  0  0999 V2000
   -9.1300   -2.9100    0.4520 O   0  0  0  0  0  0  0  0  0  0  0  0
  -10.2490   -2.6420    0.1800 C   0  0  0  0  0  0  0  0  0  0  0  0
  -11.3800   -3.0650    1.0860 C   0  0  0  0  0  0  0  0  0  0  0  0
  -11.2000   -3.8390    2.3880 C   0  0  0  0  0  0  0  0  0  0  0  0
  -10.9900   -5.0690    2.3420 N   0  0  0  0  0  0  0  0  0  0  0  0
  -12.7310   -2.7290    0.7330 N   0  0  0  0  0  0  0  0  0  0  0  0
  -12.9960   -1.9940   -0.4510 N   0  0  0  0  0  0  0  0  0  0  0  0
  -14.3580   -1.6940   -0.7530 C   0  0  0  0  0  0  0  0  0  0  0  0
  -15.0390   -0.7180   -0.0560 C   0  0  0  0  0  0  0  0  0  0  0  0
  -16.3510   -0.4690   -0.3980 C   0  0  0  0  0  0  0  0  0  0  0  0
  -16.9430   -1.2030   -1.4080 C   0  0  0  0  0  0  0  0  0  0  0  0
  -18.3840   -0.9560   -1.8060 C   0  0  0  0  0  0  0  0  0  0  0  0
  -16.2510   -2.1690   -2.1000 C   0  0  0  0  0  0  0  0  0  0  0  0
  -14.9490   -2.4160   -1.7590 C   0  0  0  0  0  0  0  0  0  0  0  0
  -11.9050   -1.5730   -1.3540 C   0  0  0  0  0  0  0  0  0  0  0  0
  -10.5280   -1.9050   -1.0240 N   0  0  0  0  0  0  0  0  0  0  0  0
   -9.4550   -1.4720   -1.9190 C   0  0  0  0  0  0  0  0  0  0  0  0
   -9.2820   -2.3940   -3.1270 C   0  0  0  0  0  0  0  0  0  0  0  0
   -7.8170   -2.5500   -3.5360 C   0  0  0  0  0  0  0  0  0  0  0  0
   -6.9720   -3.3210   -2.7550 C   0  0  0  0  0  0  0  0  0  0  0  0
   -5.6390   -3.4770   -3.1110 C   0  0  0  0  0  0  0  0  0  0  0  0
   -5.1940   -2.8390   -4.2640 C   0  0  0  0  0  0  0  0  0  0  0  0
   -6.0850   -2.0780   -5.0070 C   0  0  0  0  0  0  0  0  0  0  0  0
   -7.3470   -1.9600   -4.6270 N   0  0  0  0  0  0  0  0  0  0  0  0
  -12.1450   -0.9640   -2.3390 O   0  0  0  0  0  0  0  0  0  0  0  0
  -18.7610   -1.8760   -2.7390 F   0  0  0  0  0  0  0  0  0  0  0  0
  -18.4550    0.3250   -2.2750 F   0  0  0  0  0  0  0  0  0  0  0  0
  -19.1950   -1.1300   -0.7370 F   0  0  0  0  0  0  0  0  0  0  0  0
  -10.3357   -3.2037   -4.0333 S   0  0  0  0  0  0  0  0  0  0  0  0
   -9.7537   -4.5962   -4.9781 C   0  0  0  0  0  0  0  0  0  0  0  0
  -11.4165   -3.6518   -3.1676 O   0  0  0  0  0  0  0  0  0  0  0  0
  -10.9252   -2.2457   -5.1121 O   0  0  0  0  0  0  0  0  0  0  0  0
   -9.2473   -1.1818   -3.3427 O   0  0  0  0  0  0  0  0  0  0  0  0
   -8.4082   -0.0438   -3.1909 C   0  0  0  0  0  0  0  0  0  0  0  0
  1  2  2  0
  2  3  1  0
  2 16  1  0
  3  4  1  0
  3  6  2  0
  4  5  1  0
  6  7  1  0
  7 15  1  0
  7  8  1  0
 11 12  1  0
 12 28  1  0
 12 27  1  0
 12 26  1  0
 15 16  1  0
 15 25  2  0
 16 17  1  0
 17 18  1  0
 18 19  1  0
 18 29  1  0
 29 30  1  0
 29 31  2  0
 29 32  2  0
 18 33  1  0
 33 34  1  0
  8  9  2  0
  9 10  1  0
 10 11  2  0
 11 13  1  0
 13 14  2  0
 14  8  1  0
 19 20  2  0
 20 21  1  0
 21 22  2  0
 22 23  1  0
 23 24  2  0
 24 19  1  0
M  END

$$$$
No_468-gen_results_new/Mpro_new_generate_500/2024-01-19-21-58-56/
     RDKit          3D

 34 36  0  0  0  0  0  0  0  0999 V2000
   -9.1300   -2.9100    0.4520 O   0  0  0  0  0  0  0  0  0  0  0  0
  -10.2490   -2.6420    0.1800 C   0  0  0  0  0  0  0  0  0  0  0  0
  -11.3800   -3.0650    1.0860 C   0  0  0  0  0  0  0  0  0  0  0  0
  -11.2000   -3.8390    2.3880 C   0  0  0  0  0  0  0  0  0  0  0  0
  -10.9900   -5.0690    2.3420 N   0  0  0  0  0  0  0  0  0  0  0  0
  -12.7310   -2.7290    0.7330 N   0  0  0  0  0  0  0  0  0  0  0  0
  -12.9960   -1.9940   -0.4510 N   0  0  0  0  0  0  0  0  0  0  0  0
  -14.3580   -1.6940   -0.7530 C   0  0  0  0  0  0  0  0  0  0  0  0
  -15.0390   -0.7180   -0.0560 C   0  0  0  0  0  0  0  0  0  0  0  0
  -16.3510   -0.4690   -0.3980 C   0  0  0  0  0  0  0  0  0  0  0  0
  -16.9430   -1.2030   -1.4080 C   0  0  0  0  0  0  0  0  0  0  0  0
  -18.3840   -0.9560   -1.8060 C   0  0  0  0  0  0  0  0  0  0  0  0
  -16.2510   -2.1690   -2.1000 C   0  0  0  0  0  0  0  0  0  0  0  0
  -14.9490   -2.4160   -1.7590 C   0  0  0  0  0  0  0  0  0  0  0  0
  -11.9050   -1.5730   -1.3540 C   0  0  0  0  0  0  0  0  0  0  0  0
  -10.5280   -1.9050   -1.0240 N   0  0  0  0  0  0  0  0  0  0  0  0
   -9.4550   -1.4720   -1.9190 C   0  0  0  0  0  0  0  0  0  0  0  0
   -9.2820   -2.3940   -3.1270 C   0  0  0  0  0  0  0  0  0  0  0  0
   -7.8170   -2.5500   -3.5360 C   0  0  0  0  0  0  0  0  0  0  0  0
   -6.9720   -3.3210   -2.7550 C   0  0  0  0  0  0  0  0  0  0  0  0
   -5.6390   -3.4770   -3.1110 C   0  0  0  0  0  0  0  0  0  0  0  0
   -5.1940   -2.8390   -4.2640 C   0  0  0  0  0  0  0  0  0  0  0  0
   -6.0850   -2.0780   -5.0070 C   0  0  0  0  0  0  0  0  0  0  0  0
   -7.3470   -1.9600   -4.6270 N   0  0  0  0  0  0  0  0  0  0  0  0
  -12.1450   -0.9640   -2.3390 O   0  0  0  0  0  0  0  0  0  0  0  0
  -18.7610   -1.8760   -2.7390 F   0  0  0  0  0  0  0  0  0  0  0  0
  -18.4550    0.3250   -2.2750 F   0  0  0  0  0  0  0  0  0  0  0  0
  -19.1950   -1.1300   -0.7370 F   0  0  0  0  0  0  0  0  0  0  0  0
   -9.7920   -3.7475   -2.8656 C   0  0  0  0  0  0  0  0  0  0  0  0
  -10.2108   -1.7522   -4.5716 S   0  0  0  0  0  0  0  0  0  0  0  0
  -10.2439   -0.2032   -4.6970 C   0  0  0  0  0  0  0  0  0  0  0  0
  -10.7487   -2.5822   -5.6086 O   0  0  0  0  0  0  0  0  0  0  0  0
  -11.2704   -1.0003   -4.6125 O   0  0  0  0  0  0  0  0  0  0  0  0
  -10.6479    0.4863   -5.8387 C   0  0  0  0  0  0  0  0  0  0  0  0
  1  2  2  0
  2  3  1  0
  2 16  1  0
  3  4  1  0
  3  6  2  0
  4  5  1  0
  6  7  1  0
  7 15  1  0
  7  8  1  0
 11 12  1  0
 12 28  1  0
 12 27  1  0
 12 26  1  0
 15 16  1  0
 15 25  2  0
 16 17  1  0
 17 18  1  0
 18 19  1  0
 18 29  1  0
 18 30  1  0
 30 31  1  0
 30 32  2  0
 30 33  2  0
 31 34  1  0
  8  9  2  0
  9 10  1  0
 10 11  2  0
 11 13  1  0
 13 14  2  0
 14  8  1  0
 19 20  2  0
 20 21  1  0
 21 22  2  0
 22 23  1  0
 23 24  2  0
 24 19  1  0
M  END

$$$$
No_469-gen_results_new/Mpro_new_generate_500/2024-01-19-21-58-56/
     RDKit          3D

 33 36  0  0  0  0  0  0  0  0999 V2000
   -9.1300   -2.9100    0.4520 O   0  0  0  0  0  0  0  0  0  0  0  0
  -10.2490   -2.6420    0.1800 C   0  0  0  0  0  0  0  0  0  0  0  0
  -11.3800   -3.0650    1.0860 C   0  0  0  0  0  0  0  0  0  0  0  0
  -11.2000   -3.8390    2.3880 C   0  0  0  0  0  0  0  0  0  0  0  0
  -10.9900   -5.0690    2.3420 N   0  0  0  0  0  0  0  0  0  0  0  0
  -12.7310   -2.7290    0.7330 N   0  0  0  0  0  0  0  0  0  0  0  0
  -12.9960   -1.9940   -0.4510 N   0  0  0  0  0  0  0  0  0  0  0  0
  -14.3580   -1.6940   -0.7530 C   0  0  0  0  0  0  0  0  0  0  0  0
  -15.0390   -0.7180   -0.0560 C   0  0  0  0  0  0  0  0  0  0  0  0
  -16.3510   -0.4690   -0.3980 C   0  0  0  0  0  0  0  0  0  0  0  0
  -16.9430   -1.2030   -1.4080 C   0  0  0  0  0  0  0  0  0  0  0  0
  -18.3840   -0.9560   -1.8060 C   0  0  0  0  0  0  0  0  0  0  0  0
  -16.2510   -2.1690   -2.1000 C   0  0  0  0  0  0  0  0  0  0  0  0
  -14.9490   -2.4160   -1.7590 C   0  0  0  0  0  0  0  0  0  0  0  0
  -11.9050   -1.5730   -1.3540 C   0  0  0  0  0  0  0  0  0  0  0  0
  -10.5280   -1.9050   -1.0240 N   0  0  0  0  0  0  0  0  0  0  0  0
   -9.4550   -1.4720   -1.9190 C   0  0  0  0  0  0  0  0  0  0  0  0
   -9.2820   -2.3940   -3.1270 C   0  0  0  0  0  0  0  0  0  0  0  0
   -7.8170   -2.5500   -3.5360 C   0  0  0  0  0  0  0  0  0  0  0  0
   -6.9720   -3.3210   -2.7550 C   0  0  0  0  0  0  0  0  0  0  0  0
   -5.6390   -3.4770   -3.1110 C   0  0  0  0  0  0  0  0  0  0  0  0
   -5.1940   -2.8390   -4.2640 C   0  0  0  0  0  0  0  0  0  0  0  0
   -6.0850   -2.0780   -5.0070 C   0  0  0  0  0  0  0  0  0  0  0  0
   -7.3470   -1.9600   -4.6270 N   0  0  0  0  0  0  0  0  0  0  0  0
  -12.1450   -0.9640   -2.3390 O   0  0  0  0  0  0  0  0  0  0  0  0
  -18.7610   -1.8760   -2.7390 F   0  0  0  0  0  0  0  0  0  0  0  0
  -18.4550    0.3250   -2.2750 F   0  0  0  0  0  0  0  0  0  0  0  0
  -19.1950   -1.1300   -0.7370 F   0  0  0  0  0  0  0  0  0  0  0  0
  -10.0453   -2.0069   -4.3181 C   0  0  0  0  0  0  0  0  0  0  0  0
   -9.8476   -3.8948   -2.8015 C   0  0  0  0  0  0  0  0  0  0  0  0
  -10.9871   -4.2370   -3.4678 C   0  0  0  0  0  0  0  0  0  0  0  0
  -11.0932   -2.9485   -4.4299 C   0  0  0  0  0  0  0  0  0  0  0  0
  -10.0622   -0.8494   -5.1338 C   0  0  0  0  0  0  0  0  0  0  0  0
  1  2  2  0
  2  3  1  0
  2 16  1  0
  3  4  1  0
  3  6  2  0
  4  5  1  0
  6  7  1  0
  7 15  1  0
  7  8  1  0
 11 12  1  0
 12 28  1  0
 12 27  1  0
 12 26  1  0
 15 16  1  0
 15 25  2  0
 16 17  1  0
 17 18  1  0
 18 19  1  0
 18 29  1  0
 18 30  1  0
 30 31  1  0
 29 32  1  0
 31 32  2  0
 29 33  1  0
  8  9  2  0
  9 10  1  0
 10 11  2  0
 11 13  1  0
 13 14  2  0
 14  8  1  0
 19 20  2  0
 20 21  1  0
 21 22  2  0
 22 23  1  0
 23 24  2  0
 24 19  1  0
M  END

$$$$
No_470-gen_results_new/Mpro_new_generate_500/2024-01-19-21-58-56/
     RDKit          3D

 35 38  0  0  0  0  0  0  0  0999 V2000
   -9.1300   -2.9100    0.4520 O   0  0  0  0  0  0  0  0  0  0  0  0
  -10.2490   -2.6420    0.1800 C   0  0  0  0  0  0  0  0  0  0  0  0
  -11.3800   -3.0650    1.0860 C   0  0  0  0  0  0  0  0  0  0  0  0
  -11.2000   -3.8390    2.3880 C   0  0  0  0  0  0  0  0  0  0  0  0
  -10.9900   -5.0690    2.3420 N   0  0  0  0  0  0  0  0  0  0  0  0
  -12.7310   -2.7290    0.7330 N   0  0  0  0  0  0  0  0  0  0  0  0
  -12.9960   -1.9940   -0.4510 N   0  0  0  0  0  0  0  0  0  0  0  0
  -14.3580   -1.6940   -0.7530 C   0  0  0  0  0  0  0  0  0  0  0  0
  -15.0390   -0.7180   -0.0560 C   0  0  0  0  0  0  0  0  0  0  0  0
  -16.3510   -0.4690   -0.3980 C   0  0  0  0  0  0  0  0  0  0  0  0
  -16.9430   -1.2030   -1.4080 C   0  0  0  0  0  0  0  0  0  0  0  0
  -18.3840   -0.9560   -1.8060 C   0  0  0  0  0  0  0  0  0  0  0  0
  -16.2510   -2.1690   -2.1000 C   0  0  0  0  0  0  0  0  0  0  0  0
  -14.9490   -2.4160   -1.7590 C   0  0  0  0  0  0  0  0  0  0  0  0
  -11.9050   -1.5730   -1.3540 C   0  0  0  0  0  0  0  0  0  0  0  0
  -10.5280   -1.9050   -1.0240 N   0  0  0  0  0  0  0  0  0  0  0  0
   -9.4550   -1.4720   -1.9190 C   0  0  0  0  0  0  0  0  0  0  0  0
   -9.2820   -2.3940   -3.1270 C   0  0  0  0  0  0  0  0  0  0  0  0
   -7.8170   -2.5500   -3.5360 C   0  0  0  0  0  0  0  0  0  0  0  0
   -6.9720   -3.3210   -2.7550 C   0  0  0  0  0  0  0  0  0  0  0  0
   -5.6390   -3.4770   -3.1110 C   0  0  0  0  0  0  0  0  0  0  0  0
   -5.1940   -2.8390   -4.2640 C   0  0  0  0  0  0  0  0  0  0  0  0
   -6.0850   -2.0780   -5.0070 C   0  0  0  0  0  0  0  0  0  0  0  0
   -7.3470   -1.9600   -4.6270 N   0  0  0  0  0  0  0  0  0  0  0  0
  -12.1450   -0.9640   -2.3390 O   0  0  0  0  0  0  0  0  0  0  0  0
  -18.7610   -1.8760   -2.7390 F   0  0  0  0  0  0  0  0  0  0  0  0
  -18.4550    0.3250   -2.2750 F   0  0  0  0  0  0  0  0  0  0  0  0
  -19.1950   -1.1300   -0.7370 F   0  0  0  0  0  0  0  0  0  0  0  0
   -9.7920   -3.7475   -2.8656 C   0  0  0  0  0  0  0  0  0  0  0  0
  -10.0717   -1.8029   -4.3549 C   0  0  0  0  0  0  0  0  0  0  0  0
  -10.8758   -3.7619   -2.5647 F   0  0  0  0  0  0  0  0  0  0  0  0
   -9.0074   -4.2366   -1.8654 F   0  0  0  0  0  0  0  0  0  0  0  0
   -9.7226   -4.6325   -4.0790 C   0  0  0  0  0  0  0  0  0  0  0  0
  -10.4148   -4.2026   -4.8629 C   0  0  0  0  0  0  0  0  0  0  0  0
   -9.9509   -2.7662   -5.3706 O   0  0  0  0  0  0  0  0  0  0  0  0
  1  2  2  0
  2  3  1  0
  2 16  1  0
  3  4  1  0
  3  6  2  0
  4  5  1  0
  6  7  1  0
  7 15  1  0
  7  8  1  0
 11 12  1  0
 12 28  1  0
 12 27  1  0
 12 26  1  0
 15 16  1  0
 15 25  2  0
 16 17  1  0
 17 18  1  0
 18 19  1  0
 18 29  1  0
 18 30  1  0
 29 31  1  0
 29 32  1  0
 29 33  1  0
 33 34  2  0
 30 35  1  0
 34 35  1  0
  8  9  2  0
  9 10  1  0
 10 11  2  0
 11 13  1  0
 13 14  2  0
 14  8  1  0
 19 20  2  0
 20 21  1  0
 21 22  2  0
 22 23  1  0
 23 24  2  0
 24 19  1  0
M  END

$$$$
No_471-gen_results_new/Mpro_new_generate_500/2024-01-19-21-58-56/
     RDKit          3D

 34 36  0  0  0  0  0  0  0  0999 V2000
   -9.1300   -2.9100    0.4520 O   0  0  0  0  0  0  0  0  0  0  0  0
  -10.2490   -2.6420    0.1800 C   0  0  0  0  0  0  0  0  0  0  0  0
  -11.3800   -3.0650    1.0860 C   0  0  0  0  0  0  0  0  0  0  0  0
  -11.2000   -3.8390    2.3880 C   0  0  0  0  0  0  0  0  0  0  0  0
  -10.9900   -5.0690    2.3420 N   0  0  0  0  0  0  0  0  0  0  0  0
  -12.7310   -2.7290    0.7330 N   0  0  0  0  0  0  0  0  0  0  0  0
  -12.9960   -1.9940   -0.4510 N   0  0  0  0  0  0  0  0  0  0  0  0
  -14.3580   -1.6940   -0.7530 C   0  0  0  0  0  0  0  0  0  0  0  0
  -15.0390   -0.7180   -0.0560 C   0  0  0  0  0  0  0  0  0  0  0  0
  -16.3510   -0.4690   -0.3980 C   0  0  0  0  0  0  0  0  0  0  0  0
  -16.9430   -1.2030   -1.4080 C   0  0  0  0  0  0  0  0  0  0  0  0
  -18.3840   -0.9560   -1.8060 C   0  0  0  0  0  0  0  0  0  0  0  0
  -16.2510   -2.1690   -2.1000 C   0  0  0  0  0  0  0  0  0  0  0  0
  -14.9490   -2.4160   -1.7590 C   0  0  0  0  0  0  0  0  0  0  0  0
  -11.9050   -1.5730   -1.3540 C   0  0  0  0  0  0  0  0  0  0  0  0
  -10.5280   -1.9050   -1.0240 N   0  0  0  0  0  0  0  0  0  0  0  0
   -9.4550   -1.4720   -1.9190 C   0  0  0  0  0  0  0  0  0  0  0  0
   -9.2820   -2.3940   -3.1270 C   0  0  0  0  0  0  0  0  0  0  0  0
   -7.8170   -2.5500   -3.5360 C   0  0  0  0  0  0  0  0  0  0  0  0
   -6.9720   -3.3210   -2.7550 C   0  0  0  0  0  0  0  0  0  0  0  0
   -5.6390   -3.4770   -3.1110 C   0  0  0  0  0  0  0  0  0  0  0  0
   -5.1940   -2.8390   -4.2640 C   0  0  0  0  0  0  0  0  0  0  0  0
   -6.0850   -2.0780   -5.0070 C   0  0  0  0  0  0  0  0  0  0  0  0
   -7.3470   -1.9600   -4.6270 N   0  0  0  0  0  0  0  0  0  0  0  0
  -12.1450   -0.9640   -2.3390 O   0  0  0  0  0  0  0  0  0  0  0  0
  -18.7610   -1.8760   -2.7390 F   0  0  0  0  0  0  0  0  0  0  0  0
  -18.4550    0.3250   -2.2750 F   0  0  0  0  0  0  0  0  0  0  0  0
  -19.1950   -1.1300   -0.7370 F   0  0  0  0  0  0  0  0  0  0  0  0
   -9.7920   -3.7475   -2.8656 C   0  0  0  0  0  0  0  0  0  0  0  0
  -10.0717   -1.8029   -4.3549 C   0  0  0  0  0  0  0  0  0  0  0  0
  -10.0419   -4.6597   -4.1091 C   0  0  0  0  0  0  0  0  0  0  0  0
   -9.8820   -5.9010   -3.5986 F   0  0  0  0  0  0  0  0  0  0  0  0
  -10.3469   -4.5262   -5.1494 O   0  0  0  0  0  0  0  0  0  0  0  0
  -11.5393   -4.9350   -5.7335 C   0  0  0  0  0  0  0  0  0  0  0  0
  1  2  2  0
  2  3  1  0
  2 16  1  0
  3  4  1  0
  3  6  2  0
  4  5  1  0
  6  7  1  0
  7 15  1  0
  7  8  1  0
 11 12  1  0
 12 28  1  0
 12 27  1  0
 12 26  1  0
 15 16  1  0
 15 25  2  0
 16 17  1  0
 17 18  1  0
 18 19  1  0
 18 29  1  0
 18 30  1  0
 29 31  1  0
 31 32  1  0
 31 33  1  0
 33 34  1  0
  8  9  2  0
  9 10  1  0
 10 11  2  0
 11 13  1  0
 13 14  2  0
 14  8  1  0
 19 20  2  0
 20 21  1  0
 21 22  2  0
 22 23  1  0
 23 24  2  0
 24 19  1  0
M  END

$$$$
No_472-gen_results_new/Mpro_new_generate_500/2024-01-19-21-58-56/
     RDKit          3D

 33 35  0  0  0  0  0  0  0  0999 V2000
   -9.1300   -2.9100    0.4520 O   0  0  0  0  0  0  0  0  0  0  0  0
  -10.2490   -2.6420    0.1800 C   0  0  0  0  0  0  0  0  0  0  0  0
  -11.3800   -3.0650    1.0860 C   0  0  0  0  0  0  0  0  0  0  0  0
  -11.2000   -3.8390    2.3880 C   0  0  0  0  0  0  0  0  0  0  0  0
  -10.9900   -5.0690    2.3420 N   0  0  0  0  0  0  0  0  0  0  0  0
  -12.7310   -2.7290    0.7330 N   0  0  0  0  0  0  0  0  0  0  0  0
  -12.9960   -1.9940   -0.4510 N   0  0  0  0  0  0  0  0  0  0  0  0
  -14.3580   -1.6940   -0.7530 C   0  0  0  0  0  0  0  0  0  0  0  0
  -15.0390   -0.7180   -0.0560 C   0  0  0  0  0  0  0  0  0  0  0  0
  -16.3510   -0.4690   -0.3980 C   0  0  0  0  0  0  0  0  0  0  0  0
  -16.9430   -1.2030   -1.4080 C   0  0  0  0  0  0  0  0  0  0  0  0
  -18.3840   -0.9560   -1.8060 C   0  0  0  0  0  0  0  0  0  0  0  0
  -16.2510   -2.1690   -2.1000 C   0  0  0  0  0  0  0  0  0  0  0  0
  -14.9490   -2.4160   -1.7590 C   0  0  0  0  0  0  0  0  0  0  0  0
  -11.9050   -1.5730   -1.3540 C   0  0  0  0  0  0  0  0  0  0  0  0
  -10.5280   -1.9050   -1.0240 N   0  0  0  0  0  0  0  0  0  0  0  0
   -9.4550   -1.4720   -1.9190 C   0  0  0  0  0  0  0  0  0  0  0  0
   -9.2820   -2.3940   -3.1270 C   0  0  0  0  0  0  0  0  0  0  0  0
   -7.8170   -2.5500   -3.5360 C   0  0  0  0  0  0  0  0  0  0  0  0
   -6.9720   -3.3210   -2.7550 C   0  0  0  0  0  0  0  0  0  0  0  0
   -5.6390   -3.4770   -3.1110 C   0  0  0  0  0  0  0  0  0  0  0  0
   -5.1940   -2.8390   -4.2640 C   0  0  0  0  0  0  0  0  0  0  0  0
   -6.0850   -2.0780   -5.0070 C   0  0  0  0  0  0  0  0  0  0  0  0
   -7.3470   -1.9600   -4.6270 N   0  0  0  0  0  0  0  0  0  0  0  0
  -12.1450   -0.9640   -2.3390 O   0  0  0  0  0  0  0  0  0  0  0  0
  -18.7610   -1.8760   -2.7390 F   0  0  0  0  0  0  0  0  0  0  0  0
  -18.4550    0.3250   -2.2750 F   0  0  0  0  0  0  0  0  0  0  0  0
  -19.1950   -1.1300   -0.7370 F   0  0  0  0  0  0  0  0  0  0  0  0
   -9.7920   -3.7475   -2.8656 C   0  0  0  0  0  0  0  0  0  0  0  0
  -10.1112   -2.1676   -4.1288 O   0  0  0  0  0  0  0  0  0  0  0  0
  -10.2440   -3.0914   -5.2858 C   0  0  0  0  0  0  0  0  0  0  0  0
   -9.8797   -2.1204   -6.2620 F   0  0  0  0  0  0  0  0  0  0  0  0
   -9.6157   -4.2459   -5.5157 C   0  0  0  0  0  0  0  0  0  0  0  0
  1  2  2  0
  2  3  1  0
  2 16  1  0
  3  4  1  0
  3  6  2  0
  4  5  1  0
  6  7  1  0
  7 15  1  0
  7  8  1  0
 11 12  1  0
 12 28  1  0
 12 27  1  0
 12 26  1  0
 15 16  1  0
 15 25  2  0
 16 17  1  0
 17 18  1  0
 18 19  1  0
 18 29  1  0
 18 30  1  0
 30 31  1  0
 31 32  1  0
 31 33  1  0
  8  9  2  0
  9 10  1  0
 10 11  2  0
 11 13  1  0
 13 14  2  0
 14  8  1  0
 19 20  2  0
 20 21  1  0
 21 22  2  0
 22 23  1  0
 23 24  2  0
 24 19  1  0
M  END

$$$$
No_473-gen_results_new/Mpro_new_generate_500/2024-01-19-21-58-56/
     RDKit          3D

 35 38  0  0  0  0  0  0  0  0999 V2000
   -9.1300   -2.9100    0.4520 O   0  0  0  0  0  0  0  0  0  0  0  0
  -10.2490   -2.6420    0.1800 C   0  0  0  0  0  0  0  0  0  0  0  0
  -11.3800   -3.0650    1.0860 C   0  0  0  0  0  0  0  0  0  0  0  0
  -11.2000   -3.8390    2.3880 C   0  0  0  0  0  0  0  0  0  0  0  0
  -10.9900   -5.0690    2.3420 N   0  0  0  0  0  0  0  0  0  0  0  0
  -12.7310   -2.7290    0.7330 N   0  0  0  0  0  0  0  0  0  0  0  0
  -12.9960   -1.9940   -0.4510 N   0  0  0  0  0  0  0  0  0  0  0  0
  -14.3580   -1.6940   -0.7530 C   0  0  0  0  0  0  0  0  0  0  0  0
  -15.0390   -0.7180   -0.0560 C   0  0  0  0  0  0  0  0  0  0  0  0
  -16.3510   -0.4690   -0.3980 C   0  0  0  0  0  0  0  0  0  0  0  0
  -16.9430   -1.2030   -1.4080 C   0  0  0  0  0  0  0  0  0  0  0  0
  -18.3840   -0.9560   -1.8060 C   0  0  0  0  0  0  0  0  0  0  0  0
  -16.2510   -2.1690   -2.1000 C   0  0  0  0  0  0  0  0  0  0  0  0
  -14.9490   -2.4160   -1.7590 C   0  0  0  0  0  0  0  0  0  0  0  0
  -11.9050   -1.5730   -1.3540 C   0  0  0  0  0  0  0  0  0  0  0  0
  -10.5280   -1.9050   -1.0240 N   0  0  0  0  0  0  0  0  0  0  0  0
   -9.4550   -1.4720   -1.9190 C   0  0  0  0  0  0  0  0  0  0  0  0
   -9.2820   -2.3940   -3.1270 C   0  0  0  0  0  0  0  0  0  0  0  0
   -7.8170   -2.5500   -3.5360 C   0  0  0  0  0  0  0  0  0  0  0  0
   -6.9720   -3.3210   -2.7550 C   0  0  0  0  0  0  0  0  0  0  0  0
   -5.6390   -3.4770   -3.1110 C   0  0  0  0  0  0  0  0  0  0  0  0
   -5.1940   -2.8390   -4.2640 C   0  0  0  0  0  0  0  0  0  0  0  0
   -6.0850   -2.0780   -5.0070 C   0  0  0  0  0  0  0  0  0  0  0  0
   -7.3470   -1.9600   -4.6270 N   0  0  0  0  0  0  0  0  0  0  0  0
  -12.1450   -0.9640   -2.3390 O   0  0  0  0  0  0  0  0  0  0  0  0
  -18.7610   -1.8760   -2.7390 F   0  0  0  0  0  0  0  0  0  0  0  0
  -18.4550    0.3250   -2.2750 F   0  0  0  0  0  0  0  0  0  0  0  0
  -19.1950   -1.1300   -0.7370 F   0  0  0  0  0  0  0  0  0  0  0  0
  -10.1467   -3.0903   -3.8357 C   0  0  0  0  0  0  0  0  0  0  0  0
  -10.1681   -2.5855   -3.6007 C   0  0  0  0  0  0  0  0  0  0  0  0
  -11.3786   -2.6371   -3.4158 O   0  0  0  0  0  0  0  0  0  0  0  0
  -12.3591   -2.3066   -4.0396 C   0  0  0  0  0  0  0  0  0  0  0  0
   -9.8643   -3.5066   -4.3799 F   0  0  0  0  0  0  0  0  0  0  0  0
  -10.0221   -1.0259   -4.5356 C   0  0  0  0  0  0  0  0  0  0  0  0
  -10.0096   -3.4612   -2.4869 O   0  0  0  0  0  0  0  0  0  0  0  0
  1  2  2  0
  2  3  1  0
  2 16  1  0
  3  4  1  0
  3  6  2  0
  4  5  1  0
  6  7  1  0
  7 15  1  0
  7  8  1  0
 11 12  1  0
 12 28  1  0
 12 27  1  0
 12 26  1  0
 15 16  1  0
 15 25  2  0
 16 17  1  0
 17 18  1  0
 18 19  1  0
 18 29  1  0
 29 30  1  0
 30 31  1  0
 31 32  1  0
 29 33  1  0
 30 34  1  0
 18 35  1  0
 30 35  1  0
  8  9  2  0
  9 10  1  0
 10 11  2  0
 11 13  1  0
 13 14  2  0
 14  8  1  0
 19 20  2  0
 20 21  1  0
 21 22  2  0
 22 23  1  0
 23 24  2  0
 24 19  1  0
M  END

$$$$
No_474-gen_results_new/Mpro_new_generate_500/2024-01-19-21-58-56/
     RDKit          3D

 32 34  0  0  0  0  0  0  0  0999 V2000
   -9.1300   -2.9100    0.4520 O   0  0  0  0  0  0  0  0  0  0  0  0
  -10.2490   -2.6420    0.1800 C   0  0  0  0  0  0  0  0  0  0  0  0
  -11.3800   -3.0650    1.0860 C   0  0  0  0  0  0  0  0  0  0  0  0
  -11.2000   -3.8390    2.3880 C   0  0  0  0  0  0  0  0  0  0  0  0
  -10.9900   -5.0690    2.3420 N   0  0  0  0  0  0  0  0  0  0  0  0
  -12.7310   -2.7290    0.7330 N   0  0  0  0  0  0  0  0  0  0  0  0
  -12.9960   -1.9940   -0.4510 N   0  0  0  0  0  0  0  0  0  0  0  0
  -14.3580   -1.6940   -0.7530 C   0  0  0  0  0  0  0  0  0  0  0  0
  -15.0390   -0.7180   -0.0560 C   0  0  0  0  0  0  0  0  0  0  0  0
  -16.3510   -0.4690   -0.3980 C   0  0  0  0  0  0  0  0  0  0  0  0
  -16.9430   -1.2030   -1.4080 C   0  0  0  0  0  0  0  0  0  0  0  0
  -18.3840   -0.9560   -1.8060 C   0  0  0  0  0  0  0  0  0  0  0  0
  -16.2510   -2.1690   -2.1000 C   0  0  0  0  0  0  0  0  0  0  0  0
  -14.9490   -2.4160   -1.7590 C   0  0  0  0  0  0  0  0  0  0  0  0
  -11.9050   -1.5730   -1.3540 C   0  0  0  0  0  0  0  0  0  0  0  0
  -10.5280   -1.9050   -1.0240 N   0  0  0  0  0  0  0  0  0  0  0  0
   -9.4550   -1.4720   -1.9190 C   0  0  0  0  0  0  0  0  0  0  0  0
   -9.2820   -2.3940   -3.1270 C   0  0  0  0  0  0  0  0  0  0  0  0
   -7.8170   -2.5500   -3.5360 C   0  0  0  0  0  0  0  0  0  0  0  0
   -6.9720   -3.3210   -2.7550 C   0  0  0  0  0  0  0  0  0  0  0  0
   -5.6390   -3.4770   -3.1110 C   0  0  0  0  0  0  0  0  0  0  0  0
   -5.1940   -2.8390   -4.2640 C   0  0  0  0  0  0  0  0  0  0  0  0
   -6.0850   -2.0780   -5.0070 C   0  0  0  0  0  0  0  0  0  0  0  0
   -7.3470   -1.9600   -4.6270 N   0  0  0  0  0  0  0  0  0  0  0  0
  -12.1450   -0.9640   -2.3390 O   0  0  0  0  0  0  0  0  0  0  0  0
  -18.7610   -1.8760   -2.7390 F   0  0  0  0  0  0  0  0  0  0  0  0
  -18.4550    0.3250   -2.2750 F   0  0  0  0  0  0  0  0  0  0  0  0
  -19.1950   -1.1300   -0.7370 F   0  0  0  0  0  0  0  0  0  0  0  0
   -9.9397   -3.9796   -2.9011 S   0  0  0  0  0  0  0  0  0  0  0  0
   -9.4914   -5.0001   -2.1664 C   0  0  0  0  0  0  0  0  0  0  0  0
  -11.2280   -4.2206   -3.6477 O   0  0  0  0  0  0  0  0  0  0  0  0
   -9.5744   -4.9125   -2.8504 O   0  0  0  0  0  0  0  0  0  0  0  0
  1  2  2  0
  2  3  1  0
  2 16  1  0
  3  4  1  0
  3  6  2  0
  4  5  1  0
  6  7  1  0
  7 15  1  0
  7  8  1  0
 11 12  1  0
 12 28  1  0
 12 27  1  0
 12 26  1  0
 15 16  1  0
 15 25  2  0
 16 17  1  0
 17 18  1  0
 18 19  1  0
 18 29  1  0
 29 30  1  0
 29 31  2  0
 30 32  2  0
  8  9  2  0
  9 10  1  0
 10 11  2  0
 11 13  1  0
 13 14  2  0
 14  8  1  0
 19 20  2  0
 20 21  1  0
 21 22  2  0
 22 23  1  0
 23 24  2  0
 24 19  1  0
M  END

$$$$
No_475-gen_results_new/Mpro_new_generate_500/2024-01-19-21-58-56/
     RDKit          3D

 35 38  0  0  0  0  0  0  0  0999 V2000
   -9.1300   -2.9100    0.4520 O   0  0  0  0  0  0  0  0  0  0  0  0
  -10.2490   -2.6420    0.1800 C   0  0  0  0  0  0  0  0  0  0  0  0
  -11.3800   -3.0650    1.0860 C   0  0  0  0  0  0  0  0  0  0  0  0
  -11.2000   -3.8390    2.3880 C   0  0  0  0  0  0  0  0  0  0  0  0
  -10.9900   -5.0690    2.3420 N   0  0  0  0  0  0  0  0  0  0  0  0
  -12.7310   -2.7290    0.7330 N   0  0  0  0  0  0  0  0  0  0  0  0
  -12.9960   -1.9940   -0.4510 N   0  0  0  0  0  0  0  0  0  0  0  0
  -14.3580   -1.6940   -0.7530 C   0  0  0  0  0  0  0  0  0  0  0  0
  -15.0390   -0.7180   -0.0560 C   0  0  0  0  0  0  0  0  0  0  0  0
  -16.3510   -0.4690   -0.3980 C   0  0  0  0  0  0  0  0  0  0  0  0
  -16.9430   -1.2030   -1.4080 C   0  0  0  0  0  0  0  0  0  0  0  0
  -18.3840   -0.9560   -1.8060 C   0  0  0  0  0  0  0  0  0  0  0  0
  -16.2510   -2.1690   -2.1000 C   0  0  0  0  0  0  0  0  0  0  0  0
  -14.9490   -2.4160   -1.7590 C   0  0  0  0  0  0  0  0  0  0  0  0
  -11.9050   -1.5730   -1.3540 C   0  0  0  0  0  0  0  0  0  0  0  0
  -10.5280   -1.9050   -1.0240 N   0  0  0  0  0  0  0  0  0  0  0  0
   -9.4550   -1.4720   -1.9190 C   0  0  0  0  0  0  0  0  0  0  0  0
   -9.2820   -2.3940   -3.1270 C   0  0  0  0  0  0  0  0  0  0  0  0
   -7.8170   -2.5500   -3.5360 C   0  0  0  0  0  0  0  0  0  0  0  0
   -6.9720   -3.3210   -2.7550 C   0  0  0  0  0  0  0  0  0  0  0  0
   -5.6390   -3.4770   -3.1110 C   0  0  0  0  0  0  0  0  0  0  0  0
   -5.1940   -2.8390   -4.2640 C   0  0  0  0  0  0  0  0  0  0  0  0
   -6.0850   -2.0780   -5.0070 C   0  0  0  0  0  0  0  0  0  0  0  0
   -7.3470   -1.9600   -4.6270 N   0  0  0  0  0  0  0  0  0  0  0  0
  -12.1450   -0.9640   -2.3390 O   0  0  0  0  0  0  0  0  0  0  0  0
  -18.7610   -1.8760   -2.7390 F   0  0  0  0  0  0  0  0  0  0  0  0
  -18.4550    0.3250   -2.2750 F   0  0  0  0  0  0  0  0  0  0  0  0
  -19.1950   -1.1300   -0.7370 F   0  0  0  0  0  0  0  0  0  0  0  0
  -10.0453   -2.0069   -4.3181 C   0  0  0  0  0  0  0  0  0  0  0  0
   -9.8903   -3.8143   -2.9484 C   0  0  0  0  0  0  0  0  0  0  0  0
  -10.2391   -4.6422   -4.0501 C   0  0  0  0  0  0  0  0  0  0  0  0
  -10.7789   -3.2359   -4.8664 C   0  0  0  0  0  0  0  0  0  0  0  0
  -10.7396   -3.4233   -6.2452 F   0  0  0  0  0  0  0  0  0  0  0  0
  -12.1724   -3.0454   -4.5524 F   0  0  0  0  0  0  0  0  0  0  0  0
   -9.9675   -0.7635   -4.9588 C   0  0  0  0  0  0  0  0  0  0  0  0
  1  2  2  0
  2  3  1  0
  2 16  1  0
  3  4  1  0
  3  6  2  0
  4  5  1  0
  6  7  1  0
  7 15  1  0
  7  8  1  0
 11 12  1  0
 12 28  1  0
 12 27  1  0
 12 26  1  0
 15 16  1  0
 15 25  2  0
 16 17  1  0
 17 18  1  0
 18 19  1  0
 18 29  1  0
 18 30  1  0
 30 31  2  0
 29 32  1  0
 31 32  1  0
 32 33  1  0
 32 34  1  0
 29 35  1  0
  8  9  2  0
  9 10  1  0
 10 11  2  0
 11 13  1  0
 13 14  2  0
 14  8  1  0
 19 20  2  0
 20 21  1  0
 21 22  2  0
 22 23  1  0
 23 24  2  0
 24 19  1  0
M  END

$$$$
No_476-gen_results_new/Mpro_new_generate_500/2024-01-19-21-58-56/
     RDKit          3D

 34 36  0  0  0  0  0  0  0  0999 V2000
   -9.1300   -2.9100    0.4520 O   0  0  0  0  0  0  0  0  0  0  0  0
  -10.2490   -2.6420    0.1800 C   0  0  0  0  0  0  0  0  0  0  0  0
  -11.3800   -3.0650    1.0860 C   0  0  0  0  0  0  0  0  0  0  0  0
  -11.2000   -3.8390    2.3880 C   0  0  0  0  0  0  0  0  0  0  0  0
  -10.9900   -5.0690    2.3420 N   0  0  0  0  0  0  0  0  0  0  0  0
  -12.7310   -2.7290    0.7330 N   0  0  0  0  0  0  0  0  0  0  0  0
  -12.9960   -1.9940   -0.4510 N   0  0  0  0  0  0  0  0  0  0  0  0
  -14.3580   -1.6940   -0.7530 C   0  0  0  0  0  0  0  0  0  0  0  0
  -15.0390   -0.7180   -0.0560 C   0  0  0  0  0  0  0  0  0  0  0  0
  -16.3510   -0.4690   -0.3980 C   0  0  0  0  0  0  0  0  0  0  0  0
  -16.9430   -1.2030   -1.4080 C   0  0  0  0  0  0  0  0  0  0  0  0
  -18.3840   -0.9560   -1.8060 C   0  0  0  0  0  0  0  0  0  0  0  0
  -16.2510   -2.1690   -2.1000 C   0  0  0  0  0  0  0  0  0  0  0  0
  -14.9490   -2.4160   -1.7590 C   0  0  0  0  0  0  0  0  0  0  0  0
  -11.9050   -1.5730   -1.3540 C   0  0  0  0  0  0  0  0  0  0  0  0
  -10.5280   -1.9050   -1.0240 N   0  0  0  0  0  0  0  0  0  0  0  0
   -9.4550   -1.4720   -1.9190 C   0  0  0  0  0  0  0  0  0  0  0  0
   -9.2820   -2.3940   -3.1270 C   0  0  0  0  0  0  0  0  0  0  0  0
   -7.8170   -2.5500   -3.5360 C   0  0  0  0  0  0  0  0  0  0  0  0
   -6.9720   -3.3210   -2.7550 C   0  0  0  0  0  0  0  0  0  0  0  0
   -5.6390   -3.4770   -3.1110 C   0  0  0  0  0  0  0  0  0  0  0  0
   -5.1940   -2.8390   -4.2640 C   0  0  0  0  0  0  0  0  0  0  0  0
   -6.0850   -2.0780   -5.0070 C   0  0  0  0  0  0  0  0  0  0  0  0
   -7.3470   -1.9600   -4.6270 N   0  0  0  0  0  0  0  0  0  0  0  0
  -12.1450   -0.9640   -2.3390 O   0  0  0  0  0  0  0  0  0  0  0  0
  -18.7610   -1.8760   -2.7390 F   0  0  0  0  0  0  0  0  0  0  0  0
  -18.4550    0.3250   -2.2750 F   0  0  0  0  0  0  0  0  0  0  0  0
  -19.1950   -1.1300   -0.7370 F   0  0  0  0  0  0  0  0  0  0  0  0
  -10.1467   -3.0903   -3.8357 C   0  0  0  0  0  0  0  0  0  0  0  0
  -10.1681   -2.5855   -3.6007 C   0  0  0  0  0  0  0  0  0  0  0  0
  -11.2324   -2.1698   -4.6132 C   0  0  0  0  0  0  0  0  0  0  0  0
  -10.2319   -3.9370   -3.9431 C   0  0  0  0  0  0  0  0  0  0  0  0
   -9.5865   -3.5740   -4.9209 F   0  0  0  0  0  0  0  0  0  0  0  0
  -10.9548   -4.0332   -3.4018 C   0  0  0  0  0  0  0  0  0  0  0  0
  1  2  2  0
  2  3  1  0
  2 16  1  0
  3  4  1  0
  3  6  2  0
  4  5  1  0
  6  7  1  0
  7 15  1  0
  7  8  1  0
 11 12  1  0
 12 28  1  0
 12 27  1  0
 12 26  1  0
 15 16  1  0
 15 25  2  0
 16 17  1  0
 17 18  1  0
 18 19  1  0
 18 29  1  0
 29 30  1  0
 30 31  1  0
 30 32  1  0
 32 33  1  0
 32 34  1  0
  8  9  2  0
  9 10  1  0
 10 11  2  0
 11 13  1  0
 13 14  2  0
 14  8  1  0
 19 20  2  0
 20 21  1  0
 21 22  2  0
 22 23  1  0
 23 24  2  0
 24 19  1  0
M  END

$$$$
No_477-gen_results_new/Mpro_new_generate_500/2024-01-19-21-58-56/
     RDKit          3D

 35 37  0  0  0  0  0  0  0  0999 V2000
   -9.1300   -2.9100    0.4520 O   0  0  0  0  0  0  0  0  0  0  0  0
  -10.2490   -2.6420    0.1800 C   0  0  0  0  0  0  0  0  0  0  0  0
  -11.3800   -3.0650    1.0860 C   0  0  0  0  0  0  0  0  0  0  0  0
  -11.2000   -3.8390    2.3880 C   0  0  0  0  0  0  0  0  0  0  0  0
  -10.9900   -5.0690    2.3420 N   0  0  0  0  0  0  0  0  0  0  0  0
  -12.7310   -2.7290    0.7330 N   0  0  0  0  0  0  0  0  0  0  0  0
  -12.9960   -1.9940   -0.4510 N   0  0  0  0  0  0  0  0  0  0  0  0
  -14.3580   -1.6940   -0.7530 C   0  0  0  0  0  0  0  0  0  0  0  0
  -15.0390   -0.7180   -0.0560 C   0  0  0  0  0  0  0  0  0  0  0  0
  -16.3510   -0.4690   -0.3980 C   0  0  0  0  0  0  0  0  0  0  0  0
  -16.9430   -1.2030   -1.4080 C   0  0  0  0  0  0  0  0  0  0  0  0
  -18.3840   -0.9560   -1.8060 C   0  0  0  0  0  0  0  0  0  0  0  0
  -16.2510   -2.1690   -2.1000 C   0  0  0  0  0  0  0  0  0  0  0  0
  -14.9490   -2.4160   -1.7590 C   0  0  0  0  0  0  0  0  0  0  0  0
  -11.9050   -1.5730   -1.3540 C   0  0  0  0  0  0  0  0  0  0  0  0
  -10.5280   -1.9050   -1.0240 N   0  0  0  0  0  0  0  0  0  0  0  0
   -9.4550   -1.4720   -1.9190 C   0  0  0  0  0  0  0  0  0  0  0  0
   -9.2820   -2.3940   -3.1270 C   0  0  0  0  0  0  0  0  0  0  0  0
   -7.8170   -2.5500   -3.5360 C   0  0  0  0  0  0  0  0  0  0  0  0
   -6.9720   -3.3210   -2.7550 C   0  0  0  0  0  0  0  0  0  0  0  0
   -5.6390   -3.4770   -3.1110 C   0  0  0  0  0  0  0  0  0  0  0  0
   -5.1940   -2.8390   -4.2640 C   0  0  0  0  0  0  0  0  0  0  0  0
   -6.0850   -2.0780   -5.0070 C   0  0  0  0  0  0  0  0  0  0  0  0
   -7.3470   -1.9600   -4.6270 N   0  0  0  0  0  0  0  0  0  0  0  0
  -12.1450   -0.9640   -2.3390 O   0  0  0  0  0  0  0  0  0  0  0  0
  -18.7610   -1.8760   -2.7390 F   0  0  0  0  0  0  0  0  0  0  0  0
  -18.4550    0.3250   -2.2750 F   0  0  0  0  0  0  0  0  0  0  0  0
  -19.1950   -1.1300   -0.7370 F   0  0  0  0  0  0  0  0  0  0  0  0
   -9.7920   -3.7475   -2.8656 C   0  0  0  0  0  0  0  0  0  0  0  0
  -10.0717   -1.8029   -4.3549 C   0  0  0  0  0  0  0  0  0  0  0  0
  -10.0419   -4.6597   -4.1091 C   0  0  0  0  0  0  0  0  0  0  0  0
   -9.2792   -5.5641   -4.5414 C   0  0  0  0  0  0  0  0  0  0  0  0
   -9.6990   -6.2735   -5.6071 O   0  0  0  0  0  0  0  0  0  0  0  0
  -11.4721   -5.2211   -3.8668 C   0  0  0  0  0  0  0  0  0  0  0  0
   -9.1871   -5.9857   -6.8140 C   0  0  0  0  0  0  0  0  0  0  0  0
  1  2  2  0
  2  3  1  0
  2 16  1  0
  3  4  1  0
  3  6  2  0
  4  5  1  0
  6  7  1  0
  7 15  1  0
  7  8  1  0
 11 12  1  0
 12 28  1  0
 12 27  1  0
 12 26  1  0
 15 16  1  0
 15 25  2  0
 16 17  1  0
 17 18  1  0
 18 19  1  0
 18 29  1  0
 18 30  1  0
 29 31  1  0
 31 32  2  3
 32 33  1  0
 31 34  1  0
 33 35  1  0
  8  9  2  0
  9 10  1  0
 10 11  2  0
 11 13  1  0
 13 14  2  0
 14  8  1  0
 19 20  2  0
 20 21  1  0
 21 22  2  0
 22 23  1  0
 23 24  2  0
 24 19  1  0
M  END

$$$$
No_478-gen_results_new/Mpro_new_generate_500/2024-01-19-21-58-56/
     RDKit          3D

 32 34  0  0  0  0  0  0  0  0999 V2000
   -9.1300   -2.9100    0.4520 O   0  0  0  0  0  0  0  0  0  0  0  0
  -10.2490   -2.6420    0.1800 C   0  0  0  0  0  0  0  0  0  0  0  0
  -11.3800   -3.0650    1.0860 C   0  0  0  0  0  0  0  0  0  0  0  0
  -11.2000   -3.8390    2.3880 C   0  0  0  0  0  0  0  0  0  0  0  0
  -10.9900   -5.0690    2.3420 N   0  0  0  0  0  0  0  0  0  0  0  0
  -12.7310   -2.7290    0.7330 N   0  0  0  0  0  0  0  0  0  0  0  0
  -12.9960   -1.9940   -0.4510 N   0  0  0  0  0  0  0  0  0  0  0  0
  -14.3580   -1.6940   -0.7530 C   0  0  0  0  0  0  0  0  0  0  0  0
  -15.0390   -0.7180   -0.0560 C   0  0  0  0  0  0  0  0  0  0  0  0
  -16.3510   -0.4690   -0.3980 C   0  0  0  0  0  0  0  0  0  0  0  0
  -16.9430   -1.2030   -1.4080 C   0  0  0  0  0  0  0  0  0  0  0  0
  -18.3840   -0.9560   -1.8060 C   0  0  0  0  0  0  0  0  0  0  0  0
  -16.2510   -2.1690   -2.1000 C   0  0  0  0  0  0  0  0  0  0  0  0
  -14.9490   -2.4160   -1.7590 C   0  0  0  0  0  0  0  0  0  0  0  0
  -11.9050   -1.5730   -1.3540 C   0  0  0  0  0  0  0  0  0  0  0  0
  -10.5280   -1.9050   -1.0240 N   0  0  0  0  0  0  0  0  0  0  0  0
   -9.4550   -1.4720   -1.9190 C   0  0  0  0  0  0  0  0  0  0  0  0
   -9.2820   -2.3940   -3.1270 C   0  0  0  0  0  0  0  0  0  0  0  0
   -7.8170   -2.5500   -3.5360 C   0  0  0  0  0  0  0  0  0  0  0  0
   -6.9720   -3.3210   -2.7550 C   0  0  0  0  0  0  0  0  0  0  0  0
   -5.6390   -3.4770   -3.1110 C   0  0  0  0  0  0  0  0  0  0  0  0
   -5.1940   -2.8390   -4.2640 C   0  0  0  0  0  0  0  0  0  0  0  0
   -6.0850   -2.0780   -5.0070 C   0  0  0  0  0  0  0  0  0  0  0  0
   -7.3470   -1.9600   -4.6270 N   0  0  0  0  0  0  0  0  0  0  0  0
  -12.1450   -0.9640   -2.3390 O   0  0  0  0  0  0  0  0  0  0  0  0
  -18.7610   -1.8760   -2.7390 F   0  0  0  0  0  0  0  0  0  0  0  0
  -18.4550    0.3250   -2.2750 F   0  0  0  0  0  0  0  0  0  0  0  0
  -19.1950   -1.1300   -0.7370 F   0  0  0  0  0  0  0  0  0  0  0  0
  -10.1861   -2.0270   -4.5221 S   0  0  0  0  0  0  0  0  0  0  0  0
  -10.0854   -3.4776   -5.5497 C   0  0  0  0  0  0  0  0  0  0  0  0
  -10.6814   -1.0172   -4.9168 O   0  0  0  0  0  0  0  0  0  0  0  0
  -10.8617   -3.4369   -5.1405 C   0  0  0  0  0  0  0  0  0  0  0  0
  1  2  2  0
  2  3  1  0
  2 16  1  0
  3  4  1  0
  3  6  2  0
  4  5  1  0
  6  7  1  0
  7 15  1  0
  7  8  1  0
 11 12  1  0
 12 28  1  0
 12 27  1  0
 12 26  1  0
 15 16  1  0
 15 25  2  0
 16 17  1  0
 17 18  1  0
 18 19  1  0
 18 29  1  0
 29 30  1  0
 29 31  2  0
 30 32  2  0
  8  9  2  0
  9 10  1  0
 10 11  2  0
 11 13  1  0
 13 14  2  0
 14  8  1  0
 19 20  2  0
 20 21  1  0
 21 22  2  0
 22 23  1  0
 23 24  2  0
 24 19  1  0
M  END

$$$$
No_479-gen_results_new/Mpro_new_generate_500/2024-01-19-21-58-56/
     RDKit          3D

 32 34  0  0  0  0  0  0  0  0999 V2000
   -9.1300   -2.9100    0.4520 O   0  0  0  0  0  0  0  0  0  0  0  0
  -10.2490   -2.6420    0.1800 C   0  0  0  0  0  0  0  0  0  0  0  0
  -11.3800   -3.0650    1.0860 C   0  0  0  0  0  0  0  0  0  0  0  0
  -11.2000   -3.8390    2.3880 C   0  0  0  0  0  0  0  0  0  0  0  0
  -10.9900   -5.0690    2.3420 N   0  0  0  0  0  0  0  0  0  0  0  0
  -12.7310   -2.7290    0.7330 N   0  0  0  0  0  0  0  0  0  0  0  0
  -12.9960   -1.9940   -0.4510 N   0  0  0  0  0  0  0  0  0  0  0  0
  -14.3580   -1.6940   -0.7530 C   0  0  0  0  0  0  0  0  0  0  0  0
  -15.0390   -0.7180   -0.0560 C   0  0  0  0  0  0  0  0  0  0  0  0
  -16.3510   -0.4690   -0.3980 C   0  0  0  0  0  0  0  0  0  0  0  0
  -16.9430   -1.2030   -1.4080 C   0  0  0  0  0  0  0  0  0  0  0  0
  -18.3840   -0.9560   -1.8060 C   0  0  0  0  0  0  0  0  0  0  0  0
  -16.2510   -2.1690   -2.1000 C   0  0  0  0  0  0  0  0  0  0  0  0
  -14.9490   -2.4160   -1.7590 C   0  0  0  0  0  0  0  0  0  0  0  0
  -11.9050   -1.5730   -1.3540 C   0  0  0  0  0  0  0  0  0  0  0  0
  -10.5280   -1.9050   -1.0240 N   0  0  0  0  0  0  0  0  0  0  0  0
   -9.4550   -1.4720   -1.9190 C   0  0  0  0  0  0  0  0  0  0  0  0
   -9.2820   -2.3940   -3.1270 C   0  0  0  0  0  0  0  0  0  0  0  0
   -7.8170   -2.5500   -3.5360 C   0  0  0  0  0  0  0  0  0  0  0  0
   -6.9720   -3.3210   -2.7550 C   0  0  0  0  0  0  0  0  0  0  0  0
   -5.6390   -3.4770   -3.1110 C   0  0  0  0  0  0  0  0  0  0  0  0
   -5.1940   -2.8390   -4.2640 C   0  0  0  0  0  0  0  0  0  0  0  0
   -6.0850   -2.0780   -5.0070 C   0  0  0  0  0  0  0  0  0  0  0  0
   -7.3470   -1.9600   -4.6270 N   0  0  0  0  0  0  0  0  0  0  0  0
  -12.1450   -0.9640   -2.3390 O   0  0  0  0  0  0  0  0  0  0  0  0
  -18.7610   -1.8760   -2.7390 F   0  0  0  0  0  0  0  0  0  0  0  0
  -18.4550    0.3250   -2.2750 F   0  0  0  0  0  0  0  0  0  0  0  0
  -19.1950   -1.1300   -0.7370 F   0  0  0  0  0  0  0  0  0  0  0  0
   -9.9397   -3.9796   -2.9011 S   0  0  0  0  0  0  0  0  0  0  0  0
   -9.6825   -5.2242   -2.3551 S   0  0  0  0  0  0  0  0  0  0  0  0
  -11.3437   -4.0809   -3.6008 O   0  0  0  0  0  0  0  0  0  0  0  0
   -8.9884   -5.0817   -3.8220 C   0  0  0  0  0  0  0  0  0  0  0  0
  1  2  2  0
  2  3  1  0
  2 16  1  0
  3  4  1  0
  3  6  2  0
  4  5  1  0
  6  7  1  0
  7 15  1  0
  7  8  1  0
 11 12  1  0
 12 28  1  0
 12 27  1  0
 12 26  1  0
 15 16  1  0
 15 25  2  0
 16 17  1  0
 17 18  1  0
 18 19  1  0
 18 29  1  0
 29 30  1  0
 29 31  2  0
 30 32  1  0
  8  9  2  0
  9 10  1  0
 10 11  2  0
 11 13  1  0
 13 14  2  0
 14  8  1  0
 19 20  2  0
 20 21  1  0
 21 22  2  0
 22 23  1  0
 23 24  2  0
 24 19  1  0
M  END

$$$$
No_480-gen_results_new/Mpro_new_generate_500/2024-01-19-21-58-56/
     RDKit          3D

 34 36  0  0  0  0  0  0  0  0999 V2000
   -9.1300   -2.9100    0.4520 O   0  0  0  0  0  0  0  0  0  0  0  0
  -10.2490   -2.6420    0.1800 C   0  0  0  0  0  0  0  0  0  0  0  0
  -11.3800   -3.0650    1.0860 C   0  0  0  0  0  0  0  0  0  0  0  0
  -11.2000   -3.8390    2.3880 C   0  0  0  0  0  0  0  0  0  0  0  0
  -10.9900   -5.0690    2.3420 N   0  0  0  0  0  0  0  0  0  0  0  0
  -12.7310   -2.7290    0.7330 N   0  0  0  0  0  0  0  0  0  0  0  0
  -12.9960   -1.9940   -0.4510 N   0  0  0  0  0  0  0  0  0  0  0  0
  -14.3580   -1.6940   -0.7530 C   0  0  0  0  0  0  0  0  0  0  0  0
  -15.0390   -0.7180   -0.0560 C   0  0  0  0  0  0  0  0  0  0  0  0
  -16.3510   -0.4690   -0.3980 C   0  0  0  0  0  0  0  0  0  0  0  0
  -16.9430   -1.2030   -1.4080 C   0  0  0  0  0  0  0  0  0  0  0  0
  -18.3840   -0.9560   -1.8060 C   0  0  0  0  0  0  0  0  0  0  0  0
  -16.2510   -2.1690   -2.1000 C   0  0  0  0  0  0  0  0  0  0  0  0
  -14.9490   -2.4160   -1.7590 C   0  0  0  0  0  0  0  0  0  0  0  0
  -11.9050   -1.5730   -1.3540 C   0  0  0  0  0  0  0  0  0  0  0  0
  -10.5280   -1.9050   -1.0240 N   0  0  0  0  0  0  0  0  0  0  0  0
   -9.4550   -1.4720   -1.9190 C   0  0  0  0  0  0  0  0  0  0  0  0
   -9.2820   -2.3940   -3.1270 C   0  0  0  0  0  0  0  0  0  0  0  0
   -7.8170   -2.5500   -3.5360 C   0  0  0  0  0  0  0  0  0  0  0  0
   -6.9720   -3.3210   -2.7550 C   0  0  0  0  0  0  0  0  0  0  0  0
   -5.6390   -3.4770   -3.1110 C   0  0  0  0  0  0  0  0  0  0  0  0
   -5.1940   -2.8390   -4.2640 C   0  0  0  0  0  0  0  0  0  0  0  0
   -6.0850   -2.0780   -5.0070 C   0  0  0  0  0  0  0  0  0  0  0  0
   -7.3470   -1.9600   -4.6270 N   0  0  0  0  0  0  0  0  0  0  0  0
  -12.1450   -0.9640   -2.3390 O   0  0  0  0  0  0  0  0  0  0  0  0
  -18.7610   -1.8760   -2.7390 F   0  0  0  0  0  0  0  0  0  0  0  0
  -18.4550    0.3250   -2.2750 F   0  0  0  0  0  0  0  0  0  0  0  0
  -19.1950   -1.1300   -0.7370 F   0  0  0  0  0  0  0  0  0  0  0  0
   -9.9592   -1.9070   -4.1913 F   0  0  0  0  0  0  0  0  0  0  0  0
   -9.8231   -3.6819   -2.9032 F   0  0  0  0  0  0  0  0  0  0  0  0
  -16.7841   -3.0194   -3.1226 O   0  0  0  0  0  0  0  0  0  0  0  0
  -16.5478   -4.4512   -2.9919 C   0  0  0  0  0  0  0  0  0  0  0  0
  -15.4051   -4.7173   -4.0496 C   0  0  0  0  0  0  0  0  0  0  0  0
  -15.5293   -4.5027   -5.1489 F   0  0  0  0  0  0  0  0  0  0  0  0
  1  2  2  0
  2  3  1  0
  2 16  1  0
  3  4  1  0
  3  6  2  0
  4  5  1  0
  6  7  1  0
  7 15  1  0
  7  8  1  0
 11 12  1  0
 12 28  1  0
 12 27  1  0
 12 26  1  0
 15 16  1  0
 15 25  2  0
 16 17  1  0
 17 18  1  0
 18 19  1  0
 18 29  1  0
 18 30  1  0
 13 31  1  0
 31 32  1  0
 32 33  3  0
 33 34  1  0
  8  9  2  0
  9 10  1  0
 10 11  2  0
 11 13  1  0
 13 14  2  0
 14  8  1  0
 19 20  2  0
 20 21  1  0
 21 22  2  0
 22 23  1  0
 23 24  2  0
 24 19  1  0
M  END

$$$$
No_481-gen_results_new/Mpro_new_generate_500/2024-01-19-21-58-56/
     RDKit          3D

 33 35  0  0  0  0  0  0  0  0999 V2000
   -9.1300   -2.9100    0.4520 O   0  0  0  0  0  0  0  0  0  0  0  0
  -10.2490   -2.6420    0.1800 C   0  0  0  0  0  0  0  0  0  0  0  0
  -11.3800   -3.0650    1.0860 C   0  0  0  0  0  0  0  0  0  0  0  0
  -11.2000   -3.8390    2.3880 C   0  0  0  0  0  0  0  0  0  0  0  0
  -10.9900   -5.0690    2.3420 N   0  0  0  0  0  0  0  0  0  0  0  0
  -12.7310   -2.7290    0.7330 N   0  0  0  0  0  0  0  0  0  0  0  0
  -12.9960   -1.9940   -0.4510 N   0  0  0  0  0  0  0  0  0  0  0  0
  -14.3580   -1.6940   -0.7530 C   0  0  0  0  0  0  0  0  0  0  0  0
  -15.0390   -0.7180   -0.0560 C   0  0  0  0  0  0  0  0  0  0  0  0
  -16.3510   -0.4690   -0.3980 C   0  0  0  0  0  0  0  0  0  0  0  0
  -16.9430   -1.2030   -1.4080 C   0  0  0  0  0  0  0  0  0  0  0  0
  -18.3840   -0.9560   -1.8060 C   0  0  0  0  0  0  0  0  0  0  0  0
  -16.2510   -2.1690   -2.1000 C   0  0  0  0  0  0  0  0  0  0  0  0
  -14.9490   -2.4160   -1.7590 C   0  0  0  0  0  0  0  0  0  0  0  0
  -11.9050   -1.5730   -1.3540 C   0  0  0  0  0  0  0  0  0  0  0  0
  -10.5280   -1.9050   -1.0240 N   0  0  0  0  0  0  0  0  0  0  0  0
   -9.4550   -1.4720   -1.9190 C   0  0  0  0  0  0  0  0  0  0  0  0
   -9.2820   -2.3940   -3.1270 C   0  0  0  0  0  0  0  0  0  0  0  0
   -7.8170   -2.5500   -3.5360 C   0  0  0  0  0  0  0  0  0  0  0  0
   -6.9720   -3.3210   -2.7550 C   0  0  0  0  0  0  0  0  0  0  0  0
   -5.6390   -3.4770   -3.1110 C   0  0  0  0  0  0  0  0  0  0  0  0
   -5.1940   -2.8390   -4.2640 C   0  0  0  0  0  0  0  0  0  0  0  0
   -6.0850   -2.0780   -5.0070 C   0  0  0  0  0  0  0  0  0  0  0  0
   -7.3470   -1.9600   -4.6270 N   0  0  0  0  0  0  0  0  0  0  0  0
  -12.1450   -0.9640   -2.3390 O   0  0  0  0  0  0  0  0  0  0  0  0
  -18.7610   -1.8760   -2.7390 F   0  0  0  0  0  0  0  0  0  0  0  0
  -18.4550    0.3250   -2.2750 F   0  0  0  0  0  0  0  0  0  0  0  0
  -19.1950   -1.1300   -0.7370 F   0  0  0  0  0  0  0  0  0  0  0  0
  -10.3357   -3.2037   -4.0333 S   0  0  0  0  0  0  0  0  0  0  0  0
   -9.7537   -4.5962   -4.9781 C   0  0  0  0  0  0  0  0  0  0  0  0
  -11.8689   -3.7750   -3.2550 S   0  0  0  0  0  0  0  0  0  0  0  0
  -10.8425   -2.0921   -5.3489 C   0  0  0  0  0  0  0  0  0  0  0  0
  -11.4400   -5.3068   -2.5063 C   0  0  0  0  0  0  0  0  0  0  0  0
  1  2  2  0
  2  3  1  0
  2 16  1  0
  3  4  1  0
  3  6  2  0
  4  5  1  0
  6  7  1  0
  7 15  1  0
  7  8  1  0
 11 12  1  0
 12 28  1  0
 12 27  1  0
 12 26  1  0
 15 16  1  0
 15 25  2  0
 16 17  1  0
 17 18  1  0
 18 19  1  0
 18 29  1  0
 29 30  1  0
 29 31  1  0
 29 32  1  0
 31 33  1  0
  8  9  2  0
  9 10  1  0
 10 11  2  0
 11 13  1  0
 13 14  2  0
 14  8  1  0
 19 20  2  0
 20 21  1  0
 21 22  2  0
 22 23  1  0
 23 24  2  0
 24 19  1  0
M  END

$$$$
No_482-gen_results_new/Mpro_new_generate_500/2024-01-19-21-58-56/
     RDKit          3D

 35 37  0  0  0  0  0  0  0  0999 V2000
   -9.1300   -2.9100    0.4520 O   0  0  0  0  0  0  0  0  0  0  0  0
  -10.2490   -2.6420    0.1800 C   0  0  0  0  0  0  0  0  0  0  0  0
  -11.3800   -3.0650    1.0860 C   0  0  0  0  0  0  0  0  0  0  0  0
  -11.2000   -3.8390    2.3880 C   0  0  0  0  0  0  0  0  0  0  0  0
  -10.9900   -5.0690    2.3420 N   0  0  0  0  0  0  0  0  0  0  0  0
  -12.7310   -2.7290    0.7330 N   0  0  0  0  0  0  0  0  0  0  0  0
  -12.9960   -1.9940   -0.4510 N   0  0  0  0  0  0  0  0  0  0  0  0
  -14.3580   -1.6940   -0.7530 C   0  0  0  0  0  0  0  0  0  0  0  0
  -15.0390   -0.7180   -0.0560 C   0  0  0  0  0  0  0  0  0  0  0  0
  -16.3510   -0.4690   -0.3980 C   0  0  0  0  0  0  0  0  0  0  0  0
  -16.9430   -1.2030   -1.4080 C   0  0  0  0  0  0  0  0  0  0  0  0
  -18.3840   -0.9560   -1.8060 C   0  0  0  0  0  0  0  0  0  0  0  0
  -16.2510   -2.1690   -2.1000 C   0  0  0  0  0  0  0  0  0  0  0  0
  -14.9490   -2.4160   -1.7590 C   0  0  0  0  0  0  0  0  0  0  0  0
  -11.9050   -1.5730   -1.3540 C   0  0  0  0  0  0  0  0  0  0  0  0
  -10.5280   -1.9050   -1.0240 N   0  0  0  0  0  0  0  0  0  0  0  0
   -9.4550   -1.4720   -1.9190 C   0  0  0  0  0  0  0  0  0  0  0  0
   -9.2820   -2.3940   -3.1270 C   0  0  0  0  0  0  0  0  0  0  0  0
   -7.8170   -2.5500   -3.5360 C   0  0  0  0  0  0  0  0  0  0  0  0
   -6.9720   -3.3210   -2.7550 C   0  0  0  0  0  0  0  0  0  0  0  0
   -5.6390   -3.4770   -3.1110 C   0  0  0  0  0  0  0  0  0  0  0  0
   -5.1940   -2.8390   -4.2640 C   0  0  0  0  0  0  0  0  0  0  0  0
   -6.0850   -2.0780   -5.0070 C   0  0  0  0  0  0  0  0  0  0  0  0
   -7.3470   -1.9600   -4.6270 N   0  0  0  0  0  0  0  0  0  0  0  0
  -12.1450   -0.9640   -2.3390 O   0  0  0  0  0  0  0  0  0  0  0  0
  -18.7610   -1.8760   -2.7390 F   0  0  0  0  0  0  0  0  0  0  0  0
  -18.4550    0.3250   -2.2750 F   0  0  0  0  0  0  0  0  0  0  0  0
  -19.1950   -1.1300   -0.7370 F   0  0  0  0  0  0  0  0  0  0  0  0
  -10.0453   -2.0069   -4.3181 C   0  0  0  0  0  0  0  0  0  0  0  0
   -9.7809   -3.8139   -2.5967 C   0  0  0  0  0  0  0  0  0  0  0  0
  -11.1072   -4.2844   -2.6345 C   0  0  0  0  0  0  0  0  0  0  0  0
  -11.6697   -4.7181   -3.9092 C   0  0  0  0  0  0  0  0  0  0  0  0
  -13.0837   -5.2943   -3.6673 C   0  0  0  0  0  0  0  0  0  0  0  0
  -13.9063   -5.8319   -4.6297 C   0  0  0  0  0  0  0  0  0  0  0  0
  -15.0567   -6.4668   -4.1164 N   0  0  0  0  0  0  0  0  0  0  0  0
  1  2  2  0
  2  3  1  0
  2 16  1  0
  3  4  1  0
  3  6  2  0
  4  5  1  0
  6  7  1  0
  7 15  1  0
  7  8  1  0
 11 12  1  0
 12 28  1  0
 12 27  1  0
 12 26  1  0
 15 16  1  0
 15 25  2  0
 16 17  1  0
 17 18  1  0
 18 19  1  0
 18 29  1  0
 18 30  1  0
 30 31  1  0
 31 32  1  0
 32 33  2  3
 33 34  1  0
 34 35  1  0
  8  9  2  0
  9 10  1  0
 10 11  2  0
 11 13  1  0
 13 14  2  0
 14  8  1  0
 19 20  2  0
 20 21  1  0
 21 22  2  0
 22 23  1  0
 23 24  2  0
 24 19  1  0
M  END

$$$$
No_483-gen_results_new/Mpro_new_generate_500/2024-01-19-21-58-56/
     RDKit          3D

 34 36  0  0  0  0  0  0  0  0999 V2000
   -9.1300   -2.9100    0.4520 O   0  0  0  0  0  0  0  0  0  0  0  0
  -10.2490   -2.6420    0.1800 C   0  0  0  0  0  0  0  0  0  0  0  0
  -11.3800   -3.0650    1.0860 C   0  0  0  0  0  0  0  0  0  0  0  0
  -11.2000   -3.8390    2.3880 C   0  0  0  0  0  0  0  0  0  0  0  0
  -10.9900   -5.0690    2.3420 N   0  0  0  0  0  0  0  0  0  0  0  0
  -12.7310   -2.7290    0.7330 N   0  0  0  0  0  0  0  0  0  0  0  0
  -12.9960   -1.9940   -0.4510 N   0  0  0  0  0  0  0  0  0  0  0  0
  -14.3580   -1.6940   -0.7530 C   0  0  0  0  0  0  0  0  0  0  0  0
  -15.0390   -0.7180   -0.0560 C   0  0  0  0  0  0  0  0  0  0  0  0
  -16.3510   -0.4690   -0.3980 C   0  0  0  0  0  0  0  0  0  0  0  0
  -16.9430   -1.2030   -1.4080 C   0  0  0  0  0  0  0  0  0  0  0  0
  -18.3840   -0.9560   -1.8060 C   0  0  0  0  0  0  0  0  0  0  0  0
  -16.2510   -2.1690   -2.1000 C   0  0  0  0  0  0  0  0  0  0  0  0
  -14.9490   -2.4160   -1.7590 C   0  0  0  0  0  0  0  0  0  0  0  0
  -11.9050   -1.5730   -1.3540 C   0  0  0  0  0  0  0  0  0  0  0  0
  -10.5280   -1.9050   -1.0240 N   0  0  0  0  0  0  0  0  0  0  0  0
   -9.4550   -1.4720   -1.9190 C   0  0  0  0  0  0  0  0  0  0  0  0
   -9.2820   -2.3940   -3.1270 C   0  0  0  0  0  0  0  0  0  0  0  0
   -7.8170   -2.5500   -3.5360 C   0  0  0  0  0  0  0  0  0  0  0  0
   -6.9720   -3.3210   -2.7550 C   0  0  0  0  0  0  0  0  0  0  0  0
   -5.6390   -3.4770   -3.1110 C   0  0  0  0  0  0  0  0  0  0  0  0
   -5.1940   -2.8390   -4.2640 C   0  0  0  0  0  0  0  0  0  0  0  0
   -6.0850   -2.0780   -5.0070 C   0  0  0  0  0  0  0  0  0  0  0  0
   -7.3470   -1.9600   -4.6270 N   0  0  0  0  0  0  0  0  0  0  0  0
  -12.1450   -0.9640   -2.3390 O   0  0  0  0  0  0  0  0  0  0  0  0
  -18.7610   -1.8760   -2.7390 F   0  0  0  0  0  0  0  0  0  0  0  0
  -18.4550    0.3250   -2.2750 F   0  0  0  0  0  0  0  0  0  0  0  0
  -19.1950   -1.1300   -0.7370 F   0  0  0  0  0  0  0  0  0  0  0  0
  -10.0453   -2.0069   -4.3181 C   0  0  0  0  0  0  0  0  0  0  0  0
   -9.8476   -3.8948   -2.8015 C   0  0  0  0  0  0  0  0  0  0  0  0
  -10.1714   -4.7331   -3.9309 C   0  0  0  0  0  0  0  0  0  0  0  0
  -10.2051   -6.2008   -3.5771 C   0  0  0  0  0  0  0  0  0  0  0  0
   -9.7936   -6.4873   -2.2578 C   0  0  0  0  0  0  0  0  0  0  0  0
   -9.8100   -5.7870   -1.2773 C   0  0  0  0  0  0  0  0  0  0  0  0
  1  2  2  0
  2  3  1  0
  2 16  1  0
  3  4  1  0
  3  6  2  0
  4  5  1  0
  6  7  1  0
  7 15  1  0
  7  8  1  0
 11 12  1  0
 12 28  1  0
 12 27  1  0
 12 26  1  0
 15 16  1  0
 15 25  2  0
 16 17  1  0
 17 18  1  0
 18 19  1  0
 18 29  1  0
 18 30  1  0
 30 31  2  3
 31 32  1  0
 32 33  1  0
 33 34  2  0
  8  9  2  0
  9 10  1  0
 10 11  2  0
 11 13  1  0
 13 14  2  0
 14  8  1  0
 19 20  2  0
 20 21  1  0
 21 22  2  0
 22 23  1  0
 23 24  2  0
 24 19  1  0
M  END

$$$$
No_484-gen_results_new/Mpro_new_generate_500/2024-01-19-21-58-56/
     RDKit          3D

 35 37  0  0  0  0  0  0  0  0999 V2000
   -9.1300   -2.9100    0.4520 O   0  0  0  0  0  0  0  0  0  0  0  0
  -10.2490   -2.6420    0.1800 C   0  0  0  0  0  0  0  0  0  0  0  0
  -11.3800   -3.0650    1.0860 C   0  0  0  0  0  0  0  0  0  0  0  0
  -11.2000   -3.8390    2.3880 C   0  0  0  0  0  0  0  0  0  0  0  0
  -10.9900   -5.0690    2.3420 N   0  0  0  0  0  0  0  0  0  0  0  0
  -12.7310   -2.7290    0.7330 N   0  0  0  0  0  0  0  0  0  0  0  0
  -12.9960   -1.9940   -0.4510 N   0  0  0  0  0  0  0  0  0  0  0  0
  -14.3580   -1.6940   -0.7530 C   0  0  0  0  0  0  0  0  0  0  0  0
  -15.0390   -0.7180   -0.0560 C   0  0  0  0  0  0  0  0  0  0  0  0
  -16.3510   -0.4690   -0.3980 C   0  0  0  0  0  0  0  0  0  0  0  0
  -16.9430   -1.2030   -1.4080 C   0  0  0  0  0  0  0  0  0  0  0  0
  -18.3840   -0.9560   -1.8060 C   0  0  0  0  0  0  0  0  0  0  0  0
  -16.2510   -2.1690   -2.1000 C   0  0  0  0  0  0  0  0  0  0  0  0
  -14.9490   -2.4160   -1.7590 C   0  0  0  0  0  0  0  0  0  0  0  0
  -11.9050   -1.5730   -1.3540 C   0  0  0  0  0  0  0  0  0  0  0  0
  -10.5280   -1.9050   -1.0240 N   0  0  0  0  0  0  0  0  0  0  0  0
   -9.4550   -1.4720   -1.9190 C   0  0  0  0  0  0  0  0  0  0  0  0
   -9.2820   -2.3940   -3.1270 C   0  0  0  0  0  0  0  0  0  0  0  0
   -7.8170   -2.5500   -3.5360 C   0  0  0  0  0  0  0  0  0  0  0  0
   -6.9720   -3.3210   -2.7550 C   0  0  0  0  0  0  0  0  0  0  0  0
   -5.6390   -3.4770   -3.1110 C   0  0  0  0  0  0  0  0  0  0  0  0
   -5.1940   -2.8390   -4.2640 C   0  0  0  0  0  0  0  0  0  0  0  0
   -6.0850   -2.0780   -5.0070 C   0  0  0  0  0  0  0  0  0  0  0  0
   -7.3470   -1.9600   -4.6270 N   0  0  0  0  0  0  0  0  0  0  0  0
  -12.1450   -0.9640   -2.3390 O   0  0  0  0  0  0  0  0  0  0  0  0
  -18.7610   -1.8760   -2.7390 F   0  0  0  0  0  0  0  0  0  0  0  0
  -18.4550    0.3250   -2.2750 F   0  0  0  0  0  0  0  0  0  0  0  0
  -19.1950   -1.1300   -0.7370 F   0  0  0  0  0  0  0  0  0  0  0  0
   -9.9592   -1.9070   -4.1913 F   0  0  0  0  0  0  0  0  0  0  0  0
   -9.8855   -3.8565   -2.8874 C   0  0  0  0  0  0  0  0  0  0  0  0
  -10.9602   -4.2174   -3.8432 C   0  0  0  0  0  0  0  0  0  0  0  0
  -10.2126   -4.3747   -1.6938 C   0  0  0  0  0  0  0  0  0  0  0  0
   -9.5494   -5.6669   -1.3631 C   0  0  0  0  0  0  0  0  0  0  0  0
  -11.2581   -4.6323   -1.0585 O   0  0  0  0  0  0  0  0  0  0  0  0
  -11.6019   -6.0833   -0.3866 C   0  0  0  0  0  0  0  0  0  0  0  0
  1  2  2  0
  2  3  1  0
  2 16  1  0
  3  4  1  0
  3  6  2  0
  4  5  1  0
  6  7  1  0
  7 15  1  0
  7  8  1  0
 11 12  1  0
 12 28  1  0
 12 27  1  0
 12 26  1  0
 15 16  1  0
 15 25  2  0
 16 17  1  0
 17 18  1  0
 18 19  1  0
 18 29  1  0
 18 30  1  0
 30 31  1  0
 30 32  1  0
 32 33  1  0
 32 34  1  0
 34 35  1  0
  8  9  2  0
  9 10  1  0
 10 11  2  0
 11 13  1  0
 13 14  2  0
 14  8  1  0
 19 20  2  0
 20 21  1  0
 21 22  2  0
 22 23  1  0
 23 24  2  0
 24 19  1  0
M  END

$$$$
No_485-gen_results_new/Mpro_new_generate_500/2024-01-19-21-58-56/
     RDKit          3D

 35 37  0  0  0  0  0  0  0  0999 V2000
   -9.1300   -2.9100    0.4520 O   0  0  0  0  0  0  0  0  0  0  0  0
  -10.2490   -2.6420    0.1800 C   0  0  0  0  0  0  0  0  0  0  0  0
  -11.3800   -3.0650    1.0860 C   0  0  0  0  0  0  0  0  0  0  0  0
  -11.2000   -3.8390    2.3880 C   0  0  0  0  0  0  0  0  0  0  0  0
  -10.9900   -5.0690    2.3420 N   0  0  0  0  0  0  0  0  0  0  0  0
  -12.7310   -2.7290    0.7330 N   0  0  0  0  0  0  0  0  0  0  0  0
  -12.9960   -1.9940   -0.4510 N   0  0  0  0  0  0  0  0  0  0  0  0
  -14.3580   -1.6940   -0.7530 C   0  0  0  0  0  0  0  0  0  0  0  0
  -15.0390   -0.7180   -0.0560 C   0  0  0  0  0  0  0  0  0  0  0  0
  -16.3510   -0.4690   -0.3980 C   0  0  0  0  0  0  0  0  0  0  0  0
  -16.9430   -1.2030   -1.4080 C   0  0  0  0  0  0  0  0  0  0  0  0
  -18.3840   -0.9560   -1.8060 C   0  0  0  0  0  0  0  0  0  0  0  0
  -16.2510   -2.1690   -2.1000 C   0  0  0  0  0  0  0  0  0  0  0  0
  -14.9490   -2.4160   -1.7590 C   0  0  0  0  0  0  0  0  0  0  0  0
  -11.9050   -1.5730   -1.3540 C   0  0  0  0  0  0  0  0  0  0  0  0
  -10.5280   -1.9050   -1.0240 N   0  0  0  0  0  0  0  0  0  0  0  0
   -9.4550   -1.4720   -1.9190 C   0  0  0  0  0  0  0  0  0  0  0  0
   -9.2820   -2.3940   -3.1270 C   0  0  0  0  0  0  0  0  0  0  0  0
   -7.8170   -2.5500   -3.5360 C   0  0  0  0  0  0  0  0  0  0  0  0
   -6.9720   -3.3210   -2.7550 C   0  0  0  0  0  0  0  0  0  0  0  0
   -5.6390   -3.4770   -3.1110 C   0  0  0  0  0  0  0  0  0  0  0  0
   -5.1940   -2.8390   -4.2640 C   0  0  0  0  0  0  0  0  0  0  0  0
   -6.0850   -2.0780   -5.0070 C   0  0  0  0  0  0  0  0  0  0  0  0
   -7.3470   -1.9600   -4.6270 N   0  0  0  0  0  0  0  0  0  0  0  0
  -12.1450   -0.9640   -2.3390 O   0  0  0  0  0  0  0  0  0  0  0  0
  -18.7610   -1.8760   -2.7390 F   0  0  0  0  0  0  0  0  0  0  0  0
  -18.4550    0.3250   -2.2750 F   0  0  0  0  0  0  0  0  0  0  0  0
  -19.1950   -1.1300   -0.7370 F   0  0  0  0  0  0  0  0  0  0  0  0
  -10.1467   -3.0903   -3.8357 C   0  0  0  0  0  0  0  0  0  0  0  0
  -10.1748   -2.6832   -3.5186 O   0  0  0  0  0  0  0  0  0  0  0  0
  -10.7471   -2.9983   -4.5745 C   0  0  0  0  0  0  0  0  0  0  0  0
  -10.5503   -3.6142   -3.7226 C   0  0  0  0  0  0  0  0  0  0  0  0
  -11.1005   -4.3156   -3.1124 O   0  0  0  0  0  0  0  0  0  0  0  0
   -8.9433   -1.1902   -3.4363 C   0  0  0  0  0  0  0  0  0  0  0  0
   -7.8638   -0.1845   -2.8153 C   0  0  0  0  0  0  0  0  0  0  0  0
  1  2  2  0
  2  3  1  0
  2 16  1  0
  3  4  1  0
  3  6  2  0
  4  5  1  0
  6  7  1  0
  7 15  1  0
  7  8  1  0
 11 12  1  0
 12 28  1  0
 12 27  1  0
 12 26  1  0
 15 16  1  0
 15 25  2  0
 16 17  1  0
 17 18  1  0
 18 19  1  0
 18 29  1  0
 29 30  1  0
 29 31  1  0
 30 32  1  0
 32 33  2  0
 18 34  1  0
 34 35  1  0
  8  9  2  0
  9 10  1  0
 10 11  2  0
 11 13  1  0
 13 14  2  0
 14  8  1  0
 19 20  2  0
 20 21  1  0
 21 22  2  0
 22 23  1  0
 23 24  2  0
 24 19  1  0
M  END

$$$$
No_486-gen_results_new/Mpro_new_generate_500/2024-01-19-21-58-56/
     RDKit          3D

 33 35  0  0  0  0  0  0  0  0999 V2000
   -9.1300   -2.9100    0.4520 O   0  0  0  0  0  0  0  0  0  0  0  0
  -10.2490   -2.6420    0.1800 C   0  0  0  0  0  0  0  0  0  0  0  0
  -11.3800   -3.0650    1.0860 C   0  0  0  0  0  0  0  0  0  0  0  0
  -11.2000   -3.8390    2.3880 C   0  0  0  0  0  0  0  0  0  0  0  0
  -10.9900   -5.0690    2.3420 N   0  0  0  0  0  0  0  0  0  0  0  0
  -12.7310   -2.7290    0.7330 N   0  0  0  0  0  0  0  0  0  0  0  0
  -12.9960   -1.9940   -0.4510 N   0  0  0  0  0  0  0  0  0  0  0  0
  -14.3580   -1.6940   -0.7530 C   0  0  0  0  0  0  0  0  0  0  0  0
  -15.0390   -0.7180   -0.0560 C   0  0  0  0  0  0  0  0  0  0  0  0
  -16.3510   -0.4690   -0.3980 C   0  0  0  0  0  0  0  0  0  0  0  0
  -16.9430   -1.2030   -1.4080 C   0  0  0  0  0  0  0  0  0  0  0  0
  -18.3840   -0.9560   -1.8060 C   0  0  0  0  0  0  0  0  0  0  0  0
  -16.2510   -2.1690   -2.1000 C   0  0  0  0  0  0  0  0  0  0  0  0
  -14.9490   -2.4160   -1.7590 C   0  0  0  0  0  0  0  0  0  0  0  0
  -11.9050   -1.5730   -1.3540 C   0  0  0  0  0  0  0  0  0  0  0  0
  -10.5280   -1.9050   -1.0240 N   0  0  0  0  0  0  0  0  0  0  0  0
   -9.4550   -1.4720   -1.9190 C   0  0  0  0  0  0  0  0  0  0  0  0
   -9.2820   -2.3940   -3.1270 C   0  0  0  0  0  0  0  0  0  0  0  0
   -7.8170   -2.5500   -3.5360 C   0  0  0  0  0  0  0  0  0  0  0  0
   -6.9720   -3.3210   -2.7550 C   0  0  0  0  0  0  0  0  0  0  0  0
   -5.6390   -3.4770   -3.1110 C   0  0  0  0  0  0  0  0  0  0  0  0
   -5.1940   -2.8390   -4.2640 C   0  0  0  0  0  0  0  0  0  0  0  0
   -6.0850   -2.0780   -5.0070 C   0  0  0  0  0  0  0  0  0  0  0  0
   -7.3470   -1.9600   -4.6270 N   0  0  0  0  0  0  0  0  0  0  0  0
  -12.1450   -0.9640   -2.3390 O   0  0  0  0  0  0  0  0  0  0  0  0
  -18.7610   -1.8760   -2.7390 F   0  0  0  0  0  0  0  0  0  0  0  0
  -18.4550    0.3250   -2.2750 F   0  0  0  0  0  0  0  0  0  0  0  0
  -19.1950   -1.1300   -0.7370 F   0  0  0  0  0  0  0  0  0  0  0  0
   -9.7920   -3.7475   -2.8656 C   0  0  0  0  0  0  0  0  0  0  0  0
  -10.0717   -1.8029   -4.3549 C   0  0  0  0  0  0  0  0  0  0  0  0
  -10.0419   -4.6597   -4.1091 C   0  0  0  0  0  0  0  0  0  0  0  0
  -11.1929   -4.5008   -4.5063 F   0  0  0  0  0  0  0  0  0  0  0  0
   -9.3123   -5.7202   -4.3981 C   0  0  0  0  0  0  0  0  0  0  0  0
  1  2  2  0
  2  3  1  0
  2 16  1  0
  3  4  1  0
  3  6  2  0
  4  5  1  0
  6  7  1  0
  7 15  1  0
  7  8  1  0
 11 12  1  0
 12 28  1  0
 12 27  1  0
 12 26  1  0
 15 16  1  0
 15 25  2  0
 16 17  1  0
 17 18  1  0
 18 19  1  0
 18 29  1  0
 18 30  1  0
 29 31  1  0
 31 32  1  0
 31 33  1  0
  8  9  2  0
  9 10  1  0
 10 11  2  0
 11 13  1  0
 13 14  2  0
 14  8  1  0
 19 20  2  0
 20 21  1  0
 21 22  2  0
 22 23  1  0
 23 24  2  0
 24 19  1  0
M  END

$$$$
No_487-gen_results_new/Mpro_new_generate_500/2024-01-19-21-58-56/
     RDKit          3D

 35 38  0  0  0  0  0  0  0  0999 V2000
   -9.1300   -2.9100    0.4520 O   0  0  0  0  0  0  0  0  0  0  0  0
  -10.2490   -2.6420    0.1800 C   0  0  0  0  0  0  0  0  0  0  0  0
  -11.3800   -3.0650    1.0860 C   0  0  0  0  0  0  0  0  0  0  0  0
  -11.2000   -3.8390    2.3880 C   0  0  0  0  0  0  0  0  0  0  0  0
  -10.9900   -5.0690    2.3420 N   0  0  0  0  0  0  0  0  0  0  0  0
  -12.7310   -2.7290    0.7330 N   0  0  0  0  0  0  0  0  0  0  0  0
  -12.9960   -1.9940   -0.4510 N   0  0  0  0  0  0  0  0  0  0  0  0
  -14.3580   -1.6940   -0.7530 C   0  0  0  0  0  0  0  0  0  0  0  0
  -15.0390   -0.7180   -0.0560 C   0  0  0  0  0  0  0  0  0  0  0  0
  -16.3510   -0.4690   -0.3980 C   0  0  0  0  0  0  0  0  0  0  0  0
  -16.9430   -1.2030   -1.4080 C   0  0  0  0  0  0  0  0  0  0  0  0
  -18.3840   -0.9560   -1.8060 C   0  0  0  0  0  0  0  0  0  0  0  0
  -16.2510   -2.1690   -2.1000 C   0  0  0  0  0  0  0  0  0  0  0  0
  -14.9490   -2.4160   -1.7590 C   0  0  0  0  0  0  0  0  0  0  0  0
  -11.9050   -1.5730   -1.3540 C   0  0  0  0  0  0  0  0  0  0  0  0
  -10.5280   -1.9050   -1.0240 N   0  0  0  0  0  0  0  0  0  0  0  0
   -9.4550   -1.4720   -1.9190 C   0  0  0  0  0  0  0  0  0  0  0  0
   -9.2820   -2.3940   -3.1270 C   0  0  0  0  0  0  0  0  0  0  0  0
   -7.8170   -2.5500   -3.5360 C   0  0  0  0  0  0  0  0  0  0  0  0
   -6.9720   -3.3210   -2.7550 C   0  0  0  0  0  0  0  0  0  0  0  0
   -5.6390   -3.4770   -3.1110 C   0  0  0  0  0  0  0  0  0  0  0  0
   -5.1940   -2.8390   -4.2640 C   0  0  0  0  0  0  0  0  0  0  0  0
   -6.0850   -2.0780   -5.0070 C   0  0  0  0  0  0  0  0  0  0  0  0
   -7.3470   -1.9600   -4.6270 N   0  0  0  0  0  0  0  0  0  0  0  0
  -12.1450   -0.9640   -2.3390 O   0  0  0  0  0  0  0  0  0  0  0  0
  -18.7610   -1.8760   -2.7390 F   0  0  0  0  0  0  0  0  0  0  0  0
  -18.4550    0.3250   -2.2750 F   0  0  0  0  0  0  0  0  0  0  0  0
  -19.1950   -1.1300   -0.7370 F   0  0  0  0  0  0  0  0  0  0  0  0
  -10.0453   -2.0069   -4.3181 C   0  0  0  0  0  0  0  0  0  0  0  0
   -9.8476   -3.8948   -2.8015 C   0  0  0  0  0  0  0  0  0  0  0  0
  -10.1714   -4.7331   -3.9309 C   0  0  0  0  0  0  0  0  0  0  0  0
  -10.6132   -4.1472   -4.9938 O   0  0  0  0  0  0  0  0  0  0  0  0
  -10.9143   -2.8234   -5.0615 C   0  0  0  0  0  0  0  0  0  0  0  0
  -11.1208   -2.3848   -6.4138 O   0  0  0  0  0  0  0  0  0  0  0  0
  -11.5917   -1.1319   -6.4477 C   0  0  0  0  0  0  0  0  0  0  0  0
  1  2  2  0
  2  3  1  0
  2 16  1  0
  3  4  1  0
  3  6  2  0
  4  5  1  0
  6  7  1  0
  7 15  1  0
  7  8  1  0
 11 12  1  0
 12 28  1  0
 12 27  1  0
 12 26  1  0
 15 16  1  0
 15 25  2  0
 16 17  1  0
 17 18  1  0
 18 19  1  0
 18 29  1  0
 18 30  1  0
 30 31  2  0
 31 32  1  0
 29 33  1  0
 32 33  1  0
 33 34  1  0
 34 35  1  0
  8  9  2  0
  9 10  1  0
 10 11  2  0
 11 13  1  0
 13 14  2  0
 14  8  1  0
 19 20  2  0
 20 21  1  0
 21 22  2  0
 22 23  1  0
 23 24  2  0
 24 19  1  0
M  END

$$$$
No_488-gen_results_new/Mpro_new_generate_500/2024-01-19-21-58-56/
     RDKit          3D

 34 36  0  0  0  0  0  0  0  0999 V2000
   -9.1300   -2.9100    0.4520 O   0  0  0  0  0  0  0  0  0  0  0  0
  -10.2490   -2.6420    0.1800 C   0  0  0  0  0  0  0  0  0  0  0  0
  -11.3800   -3.0650    1.0860 C   0  0  0  0  0  0  0  0  0  0  0  0
  -11.2000   -3.8390    2.3880 C   0  0  0  0  0  0  0  0  0  0  0  0
  -10.9900   -5.0690    2.3420 N   0  0  0  0  0  0  0  0  0  0  0  0
  -12.7310   -2.7290    0.7330 N   0  0  0  0  0  0  0  0  0  0  0  0
  -12.9960   -1.9940   -0.4510 N   0  0  0  0  0  0  0  0  0  0  0  0
  -14.3580   -1.6940   -0.7530 C   0  0  0  0  0  0  0  0  0  0  0  0
  -15.0390   -0.7180   -0.0560 C   0  0  0  0  0  0  0  0  0  0  0  0
  -16.3510   -0.4690   -0.3980 C   0  0  0  0  0  0  0  0  0  0  0  0
  -16.9430   -1.2030   -1.4080 C   0  0  0  0  0  0  0  0  0  0  0  0
  -18.3840   -0.9560   -1.8060 C   0  0  0  0  0  0  0  0  0  0  0  0
  -16.2510   -2.1690   -2.1000 C   0  0  0  0  0  0  0  0  0  0  0  0
  -14.9490   -2.4160   -1.7590 C   0  0  0  0  0  0  0  0  0  0  0  0
  -11.9050   -1.5730   -1.3540 C   0  0  0  0  0  0  0  0  0  0  0  0
  -10.5280   -1.9050   -1.0240 N   0  0  0  0  0  0  0  0  0  0  0  0
   -9.4550   -1.4720   -1.9190 C   0  0  0  0  0  0  0  0  0  0  0  0
   -9.2820   -2.3940   -3.1270 C   0  0  0  0  0  0  0  0  0  0  0  0
   -7.8170   -2.5500   -3.5360 C   0  0  0  0  0  0  0  0  0  0  0  0
   -6.9720   -3.3210   -2.7550 C   0  0  0  0  0  0  0  0  0  0  0  0
   -5.6390   -3.4770   -3.1110 C   0  0  0  0  0  0  0  0  0  0  0  0
   -5.1940   -2.8390   -4.2640 C   0  0  0  0  0  0  0  0  0  0  0  0
   -6.0850   -2.0780   -5.0070 C   0  0  0  0  0  0  0  0  0  0  0  0
   -7.3470   -1.9600   -4.6270 N   0  0  0  0  0  0  0  0  0  0  0  0
  -12.1450   -0.9640   -2.3390 O   0  0  0  0  0  0  0  0  0  0  0  0
  -18.7610   -1.8760   -2.7390 F   0  0  0  0  0  0  0  0  0  0  0  0
  -18.4550    0.3250   -2.2750 F   0  0  0  0  0  0  0  0  0  0  0  0
  -19.1950   -1.1300   -0.7370 F   0  0  0  0  0  0  0  0  0  0  0  0
  -10.0899   -3.0088   -3.7244 O   0  0  0  0  0  0  0  0  0  0  0  0
  -16.7844   -3.0180   -3.1233 O   0  0  0  0  0  0  0  0  0  0  0  0
  -17.1277   -2.7877   -4.2706 C   0  0  0  0  0  0  0  0  0  0  0  0
  -18.8556   -2.8458   -3.9312 C   0  0  0  0  0  0  0  0  0  0  0  0
  -19.4556   -3.9854   -3.4985 N   0  0  0  0  0  0  0  0  0  0  0  0
  -19.7626   -2.0732   -4.5677 O   0  0  0  0  0  0  0  0  0  0  0  0
  1  2  2  0
  2  3  1  0
  2 16  1  0
  3  4  1  0
  3  6  2  0
  4  5  1  0
  6  7  1  0
  7 15  1  0
  7  8  1  0
 11 12  1  0
 12 28  1  0
 12 27  1  0
 12 26  1  0
 15 16  1  0
 15 25  2  0
 16 17  1  0
 17 18  1  0
 18 19  1  0
 18 29  2  0
 13 30  1  0
 30 31  1  0
 31 32  1  0
 32 33  1  0
 32 34  2  0
  8  9  2  0
  9 10  1  0
 10 11  2  0
 11 13  1  0
 13 14  2  0
 14  8  1  0
 19 20  2  0
 20 21  1  0
 21 22  2  0
 22 23  1  0
 23 24  2  0
 24 19  1  0
M  END

$$$$
No_489-gen_results_new/Mpro_new_generate_500/2024-01-19-21-58-56/
     RDKit          3D

 35 37  0  0  0  0  0  0  0  0999 V2000
   -9.1300   -2.9100    0.4520 O   0  0  0  0  0  0  0  0  0  0  0  0
  -10.2490   -2.6420    0.1800 C   0  0  0  0  0  0  0  0  0  0  0  0
  -11.3800   -3.0650    1.0860 C   0  0  0  0  0  0  0  0  0  0  0  0
  -11.2000   -3.8390    2.3880 C   0  0  0  0  0  0  0  0  0  0  0  0
  -10.9900   -5.0690    2.3420 N   0  0  0  0  0  0  0  0  0  0  0  0
  -12.7310   -2.7290    0.7330 N   0  0  0  0  0  0  0  0  0  0  0  0
  -12.9960   -1.9940   -0.4510 N   0  0  0  0  0  0  0  0  0  0  0  0
  -14.3580   -1.6940   -0.7530 C   0  0  0  0  0  0  0  0  0  0  0  0
  -15.0390   -0.7180   -0.0560 C   0  0  0  0  0  0  0  0  0  0  0  0
  -16.3510   -0.4690   -0.3980 C   0  0  0  0  0  0  0  0  0  0  0  0
  -16.9430   -1.2030   -1.4080 C   0  0  0  0  0  0  0  0  0  0  0  0
  -18.3840   -0.9560   -1.8060 C   0  0  0  0  0  0  0  0  0  0  0  0
  -16.2510   -2.1690   -2.1000 C   0  0  0  0  0  0  0  0  0  0  0  0
  -14.9490   -2.4160   -1.7590 C   0  0  0  0  0  0  0  0  0  0  0  0
  -11.9050   -1.5730   -1.3540 C   0  0  0  0  0  0  0  0  0  0  0  0
  -10.5280   -1.9050   -1.0240 N   0  0  0  0  0  0  0  0  0  0  0  0
   -9.4550   -1.4720   -1.9190 C   0  0  0  0  0  0  0  0  0  0  0  0
   -9.2820   -2.3940   -3.1270 C   0  0  0  0  0  0  0  0  0  0  0  0
   -7.8170   -2.5500   -3.5360 C   0  0  0  0  0  0  0  0  0  0  0  0
   -6.9720   -3.3210   -2.7550 C   0  0  0  0  0  0  0  0  0  0  0  0
   -5.6390   -3.4770   -3.1110 C   0  0  0  0  0  0  0  0  0  0  0  0
   -5.1940   -2.8390   -4.2640 C   0  0  0  0  0  0  0  0  0  0  0  0
   -6.0850   -2.0780   -5.0070 C   0  0  0  0  0  0  0  0  0  0  0  0
   -7.3470   -1.9600   -4.6270 N   0  0  0  0  0  0  0  0  0  0  0  0
  -12.1450   -0.9640   -2.3390 O   0  0  0  0  0  0  0  0  0  0  0  0
  -18.7610   -1.8760   -2.7390 F   0  0  0  0  0  0  0  0  0  0  0  0
  -18.4550    0.3250   -2.2750 F   0  0  0  0  0  0  0  0  0  0  0  0
  -19.1950   -1.1300   -0.7370 F   0  0  0  0  0  0  0  0  0  0  0  0
  -10.0453   -2.0069   -4.3181 C   0  0  0  0  0  0  0  0  0  0  0  0
   -9.8476   -3.8948   -2.8015 C   0  0  0  0  0  0  0  0  0  0  0  0
   -9.3106   -4.5161   -1.8185 O   0  0  0  0  0  0  0  0  0  0  0  0
  -10.7107   -4.6933   -3.6532 C   0  0  0  0  0  0  0  0  0  0  0  0
  -12.1054   -4.9503   -3.0374 C   0  0  0  0  0  0  0  0  0  0  0  0
  -13.2195   -5.1684   -3.8584 C   0  0  0  0  0  0  0  0  0  0  0  0
  -14.3580   -5.6430   -3.1943 F   0  0  0  0  0  0  0  0  0  0  0  0
  1  2  2  0
  2  3  1  0
  2 16  1  0
  3  4  1  0
  3  6  2  0
  4  5  1  0
  6  7  1  0
  7 15  1  0
  7  8  1  0
 11 12  1  0
 12 28  1  0
 12 27  1  0
 12 26  1  0
 15 16  1  0
 15 25  2  0
 16 17  1  0
 17 18  1  0
 18 19  1  0
 18 29  1  0
 18 30  1  0
 30 31  2  0
 30 32  1  0
 32 33  1  0
 33 34  2  3
 34 35  1  0
  8  9  2  0
  9 10  1  0
 10 11  2  0
 11 13  1  0
 13 14  2  0
 14  8  1  0
 19 20  2  0
 20 21  1  0
 21 22  2  0
 22 23  1  0
 23 24  2  0
 24 19  1  0
M  END

$$$$
No_490-gen_results_new/Mpro_new_generate_500/2024-01-19-21-58-56/
     RDKit          3D

 34 37  0  0  0  0  0  0  0  0999 V2000
   -9.1300   -2.9100    0.4520 O   0  0  0  0  0  0  0  0  0  0  0  0
  -10.2490   -2.6420    0.1800 C   0  0  0  0  0  0  0  0  0  0  0  0
  -11.3800   -3.0650    1.0860 C   0  0  0  0  0  0  0  0  0  0  0  0
  -11.2000   -3.8390    2.3880 C   0  0  0  0  0  0  0  0  0  0  0  0
  -10.9900   -5.0690    2.3420 N   0  0  0  0  0  0  0  0  0  0  0  0
  -12.7310   -2.7290    0.7330 N   0  0  0  0  0  0  0  0  0  0  0  0
  -12.9960   -1.9940   -0.4510 N   0  0  0  0  0  0  0  0  0  0  0  0
  -14.3580   -1.6940   -0.7530 C   0  0  0  0  0  0  0  0  0  0  0  0
  -15.0390   -0.7180   -0.0560 C   0  0  0  0  0  0  0  0  0  0  0  0
  -16.3510   -0.4690   -0.3980 C   0  0  0  0  0  0  0  0  0  0  0  0
  -16.9430   -1.2030   -1.4080 C   0  0  0  0  0  0  0  0  0  0  0  0
  -18.3840   -0.9560   -1.8060 C   0  0  0  0  0  0  0  0  0  0  0  0
  -16.2510   -2.1690   -2.1000 C   0  0  0  0  0  0  0  0  0  0  0  0
  -14.9490   -2.4160   -1.7590 C   0  0  0  0  0  0  0  0  0  0  0  0
  -11.9050   -1.5730   -1.3540 C   0  0  0  0  0  0  0  0  0  0  0  0
  -10.5280   -1.9050   -1.0240 N   0  0  0  0  0  0  0  0  0  0  0  0
   -9.4550   -1.4720   -1.9190 C   0  0  0  0  0  0  0  0  0  0  0  0
   -9.2820   -2.3940   -3.1270 C   0  0  0  0  0  0  0  0  0  0  0  0
   -7.8170   -2.5500   -3.5360 C   0  0  0  0  0  0  0  0  0  0  0  0
   -6.9720   -3.3210   -2.7550 C   0  0  0  0  0  0  0  0  0  0  0  0
   -5.6390   -3.4770   -3.1110 C   0  0  0  0  0  0  0  0  0  0  0  0
   -5.1940   -2.8390   -4.2640 C   0  0  0  0  0  0  0  0  0  0  0  0
   -6.0850   -2.0780   -5.0070 C   0  0  0  0  0  0  0  0  0  0  0  0
   -7.3470   -1.9600   -4.6270 N   0  0  0  0  0  0  0  0  0  0  0  0
  -12.1450   -0.9640   -2.3390 O   0  0  0  0  0  0  0  0  0  0  0  0
  -18.7610   -1.8760   -2.7390 F   0  0  0  0  0  0  0  0  0  0  0  0
  -18.4550    0.3250   -2.2750 F   0  0  0  0  0  0  0  0  0  0  0  0
  -19.1950   -1.1300   -0.7370 F   0  0  0  0  0  0  0  0  0  0  0  0
   -9.7920   -3.7475   -2.8656 C   0  0  0  0  0  0  0  0  0  0  0  0
  -10.1387   -2.0206   -4.2903 C   0  0  0  0  0  0  0  0  0  0  0  0
  -10.7383   -4.2958   -3.7467 C   0  0  0  0  0  0  0  0  0  0  0  0
  -11.0233   -2.9754   -4.5251 C   0  0  0  0  0  0  0  0  0  0  0  0
   -9.3594   -4.6418   -1.9652 O   0  0  0  0  0  0  0  0  0  0  0  0
  -11.6831   -5.2660   -3.9824 C   0  0  0  0  0  0  0  0  0  0  0  0
  1  2  2  0
  2  3  1  0
  2 16  1  0
  3  4  1  0
  3  6  2  0
  4  5  1  0
  6  7  1  0
  7 15  1  0
  7  8  1  0
 11 12  1  0
 12 28  1  0
 12 27  1  0
 12 26  1  0
 15 16  1  0
 15 25  2  0
 16 17  1  0
 17 18  1  0
 18 19  1  0
 18 29  1  0
 18 30  1  0
 29 31  1  0
 30 32  2  0
 31 32  1  0
 29 33  2  0
 31 34  1  0
  8  9  2  0
  9 10  1  0
 10 11  2  0
 11 13  1  0
 13 14  2  0
 14  8  1  0
 19 20  2  0
 20 21  1  0
 21 22  2  0
 22 23  1  0
 23 24  2  0
 24 19  1  0
M  END

$$$$
No_491-gen_results_new/Mpro_new_generate_500/2024-01-19-21-58-56/
     RDKit          3D

 31 33  0  0  0  0  0  0  0  0999 V2000
   -9.1300   -2.9100    0.4520 O   0  0  0  0  0  0  0  0  0  0  0  0
  -10.2490   -2.6420    0.1800 C   0  0  0  0  0  0  0  0  0  0  0  0
  -11.3800   -3.0650    1.0860 C   0  0  0  0  0  0  0  0  0  0  0  0
  -11.2000   -3.8390    2.3880 C   0  0  0  0  0  0  0  0  0  0  0  0
  -10.9900   -5.0690    2.3420 N   0  0  0  0  0  0  0  0  0  0  0  0
  -12.7310   -2.7290    0.7330 N   0  0  0  0  0  0  0  0  0  0  0  0
  -12.9960   -1.9940   -0.4510 N   0  0  0  0  0  0  0  0  0  0  0  0
  -14.3580   -1.6940   -0.7530 C   0  0  0  0  0  0  0  0  0  0  0  0
  -15.0390   -0.7180   -0.0560 C   0  0  0  0  0  0  0  0  0  0  0  0
  -16.3510   -0.4690   -0.3980 C   0  0  0  0  0  0  0  0  0  0  0  0
  -16.9430   -1.2030   -1.4080 C   0  0  0  0  0  0  0  0  0  0  0  0
  -18.3840   -0.9560   -1.8060 C   0  0  0  0  0  0  0  0  0  0  0  0
  -16.2510   -2.1690   -2.1000 C   0  0  0  0  0  0  0  0  0  0  0  0
  -14.9490   -2.4160   -1.7590 C   0  0  0  0  0  0  0  0  0  0  0  0
  -11.9050   -1.5730   -1.3540 C   0  0  0  0  0  0  0  0  0  0  0  0
  -10.5280   -1.9050   -1.0240 N   0  0  0  0  0  0  0  0  0  0  0  0
   -9.4550   -1.4720   -1.9190 C   0  0  0  0  0  0  0  0  0  0  0  0
   -9.2820   -2.3940   -3.1270 C   0  0  0  0  0  0  0  0  0  0  0  0
   -7.8170   -2.5500   -3.5360 C   0  0  0  0  0  0  0  0  0  0  0  0
   -6.9720   -3.3210   -2.7550 C   0  0  0  0  0  0  0  0  0  0  0  0
   -5.6390   -3.4770   -3.1110 C   0  0  0  0  0  0  0  0  0  0  0  0
   -5.1940   -2.8390   -4.2640 C   0  0  0  0  0  0  0  0  0  0  0  0
   -6.0850   -2.0780   -5.0070 C   0  0  0  0  0  0  0  0  0  0  0  0
   -7.3470   -1.9600   -4.6270 N   0  0  0  0  0  0  0  0  0  0  0  0
  -12.1450   -0.9640   -2.3390 O   0  0  0  0  0  0  0  0  0  0  0  0
  -18.7610   -1.8760   -2.7390 F   0  0  0  0  0  0  0  0  0  0  0  0
  -18.4550    0.3250   -2.2750 F   0  0  0  0  0  0  0  0  0  0  0  0
  -19.1950   -1.1300   -0.7370 F   0  0  0  0  0  0  0  0  0  0  0  0
  -10.1861   -2.0270   -4.5221 S   0  0  0  0  0  0  0  0  0  0  0  0
   -9.9265   -1.1473   -5.4383 S   0  0  0  0  0  0  0  0  0  0  0  0
  -12.0876   -2.5837   -4.5676 S   0  0  0  0  0  0  0  0  0  0  0  0
  1  2  2  0
  2  3  1  0
  2 16  1  0
  3  4  1  0
  3  6  2  0
  4  5  1  0
  6  7  1  0
  7 15  1  0
  7  8  1  0
 11 12  1  0
 12 28  1  0
 12 27  1  0
 12 26  1  0
 15 16  1  0
 15 25  2  0
 16 17  1  0
 17 18  1  0
 18 19  1  0
 18 29  1  0
 29 30  2  0
 29 31  2  0
  8  9  2  0
  9 10  1  0
 10 11  2  0
 11 13  1  0
 13 14  2  0
 14  8  1  0
 19 20  2  0
 20 21  1  0
 21 22  2  0
 22 23  1  0
 23 24  2  0
 24 19  1  0
M  END

$$$$
No_492-gen_results_new/Mpro_new_generate_500/2024-01-19-21-58-56/
     RDKit          3D

 34 37  0  0  0  0  0  0  0  0999 V2000
   -9.1300   -2.9100    0.4520 O   0  0  0  0  0  0  0  0  0  0  0  0
  -10.2490   -2.6420    0.1800 C   0  0  0  0  0  0  0  0  0  0  0  0
  -11.3800   -3.0650    1.0860 C   0  0  0  0  0  0  0  0  0  0  0  0
  -11.2000   -3.8390    2.3880 C   0  0  0  0  0  0  0  0  0  0  0  0
  -10.9900   -5.0690    2.3420 N   0  0  0  0  0  0  0  0  0  0  0  0
  -12.7310   -2.7290    0.7330 N   0  0  0  0  0  0  0  0  0  0  0  0
  -12.9960   -1.9940   -0.4510 N   0  0  0  0  0  0  0  0  0  0  0  0
  -14.3580   -1.6940   -0.7530 C   0  0  0  0  0  0  0  0  0  0  0  0
  -15.0390   -0.7180   -0.0560 C   0  0  0  0  0  0  0  0  0  0  0  0
  -16.3510   -0.4690   -0.3980 C   0  0  0  0  0  0  0  0  0  0  0  0
  -16.9430   -1.2030   -1.4080 C   0  0  0  0  0  0  0  0  0  0  0  0
  -18.3840   -0.9560   -1.8060 C   0  0  0  0  0  0  0  0  0  0  0  0
  -16.2510   -2.1690   -2.1000 C   0  0  0  0  0  0  0  0  0  0  0  0
  -14.9490   -2.4160   -1.7590 C   0  0  0  0  0  0  0  0  0  0  0  0
  -11.9050   -1.5730   -1.3540 C   0  0  0  0  0  0  0  0  0  0  0  0
  -10.5280   -1.9050   -1.0240 N   0  0  0  0  0  0  0  0  0  0  0  0
   -9.4550   -1.4720   -1.9190 C   0  0  0  0  0  0  0  0  0  0  0  0
   -9.2820   -2.3940   -3.1270 C   0  0  0  0  0  0  0  0  0  0  0  0
   -7.8170   -2.5500   -3.5360 C   0  0  0  0  0  0  0  0  0  0  0  0
   -6.9720   -3.3210   -2.7550 C   0  0  0  0  0  0  0  0  0  0  0  0
   -5.6390   -3.4770   -3.1110 C   0  0  0  0  0  0  0  0  0  0  0  0
   -5.1940   -2.8390   -4.2640 C   0  0  0  0  0  0  0  0  0  0  0  0
   -6.0850   -2.0780   -5.0070 C   0  0  0  0  0  0  0  0  0  0  0  0
   -7.3470   -1.9600   -4.6270 N   0  0  0  0  0  0  0  0  0  0  0  0
  -12.1450   -0.9640   -2.3390 O   0  0  0  0  0  0  0  0  0  0  0  0
  -18.7610   -1.8760   -2.7390 F   0  0  0  0  0  0  0  0  0  0  0  0
  -18.4550    0.3250   -2.2750 F   0  0  0  0  0  0  0  0  0  0  0  0
  -19.1950   -1.1300   -0.7370 F   0  0  0  0  0  0  0  0  0  0  0  0
  -10.1467   -3.0903   -3.8357 C   0  0  0  0  0  0  0  0  0  0  0  0
  -10.1748   -2.6832   -3.5186 O   0  0  0  0  0  0  0  0  0  0  0  0
  -10.7471   -2.9983   -4.5745 C   0  0  0  0  0  0  0  0  0  0  0  0
  -10.5504   -3.6142   -3.7226 C   0  0  0  0  0  0  0  0  0  0  0  0
   -8.8797   -1.3479   -3.4501 O   0  0  0  0  0  0  0  0  0  0  0  0
   -8.0048    0.0991   -3.3702 C   0  0  0  0  0  0  0  0  0  0  0  0
  1  2  2  0
  2  3  1  0
  2 16  1  0
  3  4  1  0
  3  6  2  0
  4  5  1  0
  6  7  1  0
  7 15  1  0
  7  8  1  0
 11 12  1  0
 12 28  1  0
 12 27  1  0
 12 26  1  0
 15 16  1  0
 15 25  2  0
 16 17  1  0
 17 18  1  0
 18 19  1  0
 18 29  1  0
 29 30  1  0
 29 31  1  0
 30 32  1  0
 31 32  1  0
 18 33  1  0
 33 34  1  0
  8  9  2  0
  9 10  1  0
 10 11  2  0
 11 13  1  0
 13 14  2  0
 14  8  1  0
 19 20  2  0
 20 21  1  0
 21 22  2  0
 22 23  1  0
 23 24  2  0
 24 19  1  0
M  END

$$$$
No_493-gen_results_new/Mpro_new_generate_500/2024-01-19-21-58-56/
     RDKit          3D

 32 34  0  0  0  0  0  0  0  0999 V2000
   -9.1300   -2.9100    0.4520 O   0  0  0  0  0  0  0  0  0  0  0  0
  -10.2490   -2.6420    0.1800 C   0  0  0  0  0  0  0  0  0  0  0  0
  -11.3800   -3.0650    1.0860 C   0  0  0  0  0  0  0  0  0  0  0  0
  -11.2000   -3.8390    2.3880 C   0  0  0  0  0  0  0  0  0  0  0  0
  -10.9900   -5.0690    2.3420 N   0  0  0  0  0  0  0  0  0  0  0  0
  -12.7310   -2.7290    0.7330 N   0  0  0  0  0  0  0  0  0  0  0  0
  -12.9960   -1.9940   -0.4510 N   0  0  0  0  0  0  0  0  0  0  0  0
  -14.3580   -1.6940   -0.7530 C   0  0  0  0  0  0  0  0  0  0  0  0
  -15.0390   -0.7180   -0.0560 C   0  0  0  0  0  0  0  0  0  0  0  0
  -16.3510   -0.4690   -0.3980 C   0  0  0  0  0  0  0  0  0  0  0  0
  -16.9430   -1.2030   -1.4080 C   0  0  0  0  0  0  0  0  0  0  0  0
  -18.3840   -0.9560   -1.8060 C   0  0  0  0  0  0  0  0  0  0  0  0
  -16.2510   -2.1690   -2.1000 C   0  0  0  0  0  0  0  0  0  0  0  0
  -14.9490   -2.4160   -1.7590 C   0  0  0  0  0  0  0  0  0  0  0  0
  -11.9050   -1.5730   -1.3540 C   0  0  0  0  0  0  0  0  0  0  0  0
  -10.5280   -1.9050   -1.0240 N   0  0  0  0  0  0  0  0  0  0  0  0
   -9.4550   -1.4720   -1.9190 C   0  0  0  0  0  0  0  0  0  0  0  0
   -9.2820   -2.3940   -3.1270 C   0  0  0  0  0  0  0  0  0  0  0  0
   -7.8170   -2.5500   -3.5360 C   0  0  0  0  0  0  0  0  0  0  0  0
   -6.9720   -3.3210   -2.7550 C   0  0  0  0  0  0  0  0  0  0  0  0
   -5.6390   -3.4770   -3.1110 C   0  0  0  0  0  0  0  0  0  0  0  0
   -5.1940   -2.8390   -4.2640 C   0  0  0  0  0  0  0  0  0  0  0  0
   -6.0850   -2.0780   -5.0070 C   0  0  0  0  0  0  0  0  0  0  0  0
   -7.3470   -1.9600   -4.6270 N   0  0  0  0  0  0  0  0  0  0  0  0
  -12.1450   -0.9640   -2.3390 O   0  0  0  0  0  0  0  0  0  0  0  0
  -18.7610   -1.8760   -2.7390 F   0  0  0  0  0  0  0  0  0  0  0  0
  -18.4550    0.3250   -2.2750 F   0  0  0  0  0  0  0  0  0  0  0  0
  -19.1950   -1.1300   -0.7370 F   0  0  0  0  0  0  0  0  0  0  0  0
  -10.1467   -3.0903   -3.8357 C   0  0  0  0  0  0  0  0  0  0  0  0
  -10.1681   -2.5855   -3.6007 C   0  0  0  0  0  0  0  0  0  0  0  0
  -11.3308   -2.7701   -3.8546 C   0  0  0  0  0  0  0  0  0  0  0  0
  -10.4165   -1.3229   -4.5185 F   0  0  0  0  0  0  0  0  0  0  0  0
  1  2  2  0
  2  3  1  0
  2 16  1  0
  3  4  1  0
  3  6  2  0
  4  5  1  0
  6  7  1  0
  7 15  1  0
  7  8  1  0
 11 12  1  0
 12 28  1  0
 12 27  1  0
 12 26  1  0
 15 16  1  0
 15 25  2  0
 16 17  1  0
 17 18  1  0
 18 19  1  0
 18 29  1  0
 29 30  1  0
 30 31  2  0
 30 32  1  0
  8  9  2  0
  9 10  1  0
 10 11  2  0
 11 13  1  0
 13 14  2  0
 14  8  1  0
 19 20  2  0
 20 21  1  0
 21 22  2  0
 22 23  1  0
 23 24  2  0
 24 19  1  0
M  END

$$$$
No_494-gen_results_new/Mpro_new_generate_500/2024-01-19-21-58-56/
     RDKit          3D

 35 38  0  0  0  0  0  0  0  0999 V2000
   -9.1300   -2.9100    0.4520 O   0  0  0  0  0  0  0  0  0  0  0  0
  -10.2490   -2.6420    0.1800 C   0  0  0  0  0  0  0  0  0  0  0  0
  -11.3800   -3.0650    1.0860 C   0  0  0  0  0  0  0  0  0  0  0  0
  -11.2000   -3.8390    2.3880 C   0  0  0  0  0  0  0  0  0  0  0  0
  -10.9900   -5.0690    2.3420 N   0  0  0  0  0  0  0  0  0  0  0  0
  -12.7310   -2.7290    0.7330 N   0  0  0  0  0  0  0  0  0  0  0  0
  -12.9960   -1.9940   -0.4510 N   0  0  0  0  0  0  0  0  0  0  0  0
  -14.3580   -1.6940   -0.7530 C   0  0  0  0  0  0  0  0  0  0  0  0
  -15.0390   -0.7180   -0.0560 C   0  0  0  0  0  0  0  0  0  0  0  0
  -16.3510   -0.4690   -0.3980 C   0  0  0  0  0  0  0  0  0  0  0  0
  -16.9430   -1.2030   -1.4080 C   0  0  0  0  0  0  0  0  0  0  0  0
  -18.3840   -0.9560   -1.8060 C   0  0  0  0  0  0  0  0  0  0  0  0
  -16.2510   -2.1690   -2.1000 C   0  0  0  0  0  0  0  0  0  0  0  0
  -14.9490   -2.4160   -1.7590 C   0  0  0  0  0  0  0  0  0  0  0  0
  -11.9050   -1.5730   -1.3540 C   0  0  0  0  0  0  0  0  0  0  0  0
  -10.5280   -1.9050   -1.0240 N   0  0  0  0  0  0  0  0  0  0  0  0
   -9.4550   -1.4720   -1.9190 C   0  0  0  0  0  0  0  0  0  0  0  0
   -9.2820   -2.3940   -3.1270 C   0  0  0  0  0  0  0  0  0  0  0  0
   -7.8170   -2.5500   -3.5360 C   0  0  0  0  0  0  0  0  0  0  0  0
   -6.9720   -3.3210   -2.7550 C   0  0  0  0  0  0  0  0  0  0  0  0
   -5.6390   -3.4770   -3.1110 C   0  0  0  0  0  0  0  0  0  0  0  0
   -5.1940   -2.8390   -4.2640 C   0  0  0  0  0  0  0  0  0  0  0  0
   -6.0850   -2.0780   -5.0070 C   0  0  0  0  0  0  0  0  0  0  0  0
   -7.3470   -1.9600   -4.6270 N   0  0  0  0  0  0  0  0  0  0  0  0
  -12.1450   -0.9640   -2.3390 O   0  0  0  0  0  0  0  0  0  0  0  0
  -18.7610   -1.8760   -2.7390 F   0  0  0  0  0  0  0  0  0  0  0  0
  -18.4550    0.3250   -2.2750 F   0  0  0  0  0  0  0  0  0  0  0  0
  -19.1950   -1.1300   -0.7370 F   0  0  0  0  0  0  0  0  0  0  0  0
  -10.0453   -2.0069   -4.3181 C   0  0  0  0  0  0  0  0  0  0  0  0
   -9.8903   -3.8143   -2.9484 C   0  0  0  0  0  0  0  0  0  0  0  0
  -10.2391   -4.6422   -4.0501 C   0  0  0  0  0  0  0  0  0  0  0  0
  -10.7789   -3.2359   -4.8664 C   0  0  0  0  0  0  0  0  0  0  0  0
  -10.7396   -3.4233   -6.2452 F   0  0  0  0  0  0  0  0  0  0  0  0
  -12.1724   -3.0454   -4.5523 F   0  0  0  0  0  0  0  0  0  0  0  0
   -9.9371   -0.9232   -4.9098 O   0  0  0  0  0  0  0  0  0  0  0  0
  1  2  2  0
  2  3  1  0
  2 16  1  0
  3  4  1  0
  3  6  2  0
  4  5  1  0
  6  7  1  0
  7 15  1  0
  7  8  1  0
 11 12  1  0
 12 28  1  0
 12 27  1  0
 12 26  1  0
 15 16  1  0
 15 25  2  0
 16 17  1  0
 17 18  1  0
 18 19  1  0
 18 29  1  0
 18 30  1  0
 30 31  2  0
 29 32  1  0
 31 32  1  0
 32 33  1  0
 32 34  1  0
 29 35  2  0
  8  9  2  0
  9 10  1  0
 10 11  2  0
 11 13  1  0
 13 14  2  0
 14  8  1  0
 19 20  2  0
 20 21  1  0
 21 22  2  0
 22 23  1  0
 23 24  2  0
 24 19  1  0
M  END

$$$$
No_495-gen_results_new/Mpro_new_generate_500/2024-01-19-21-58-56/
     RDKit          3D

 34 36  0  0  0  0  0  0  0  0999 V2000
   -9.1300   -2.9100    0.4520 O   0  0  0  0  0  0  0  0  0  0  0  0
  -10.2490   -2.6420    0.1800 C   0  0  0  0  0  0  0  0  0  0  0  0
  -11.3800   -3.0650    1.0860 C   0  0  0  0  0  0  0  0  0  0  0  0
  -11.2000   -3.8390    2.3880 C   0  0  0  0  0  0  0  0  0  0  0  0
  -10.9900   -5.0690    2.3420 N   0  0  0  0  0  0  0  0  0  0  0  0
  -12.7310   -2.7290    0.7330 N   0  0  0  0  0  0  0  0  0  0  0  0
  -12.9960   -1.9940   -0.4510 N   0  0  0  0  0  0  0  0  0  0  0  0
  -14.3580   -1.6940   -0.7530 C   0  0  0  0  0  0  0  0  0  0  0  0
  -15.0390   -0.7180   -0.0560 C   0  0  0  0  0  0  0  0  0  0  0  0
  -16.3510   -0.4690   -0.3980 C   0  0  0  0  0  0  0  0  0  0  0  0
  -16.9430   -1.2030   -1.4080 C   0  0  0  0  0  0  0  0  0  0  0  0
  -18.3840   -0.9560   -1.8060 C   0  0  0  0  0  0  0  0  0  0  0  0
  -16.2510   -2.1690   -2.1000 C   0  0  0  0  0  0  0  0  0  0  0  0
  -14.9490   -2.4160   -1.7590 C   0  0  0  0  0  0  0  0  0  0  0  0
  -11.9050   -1.5730   -1.3540 C   0  0  0  0  0  0  0  0  0  0  0  0
  -10.5280   -1.9050   -1.0240 N   0  0  0  0  0  0  0  0  0  0  0  0
   -9.4550   -1.4720   -1.9190 C   0  0  0  0  0  0  0  0  0  0  0  0
   -9.2820   -2.3940   -3.1270 C   0  0  0  0  0  0  0  0  0  0  0  0
   -7.8170   -2.5500   -3.5360 C   0  0  0  0  0  0  0  0  0  0  0  0
   -6.9720   -3.3210   -2.7550 C   0  0  0  0  0  0  0  0  0  0  0  0
   -5.6390   -3.4770   -3.1110 C   0  0  0  0  0  0  0  0  0  0  0  0
   -5.1940   -2.8390   -4.2640 C   0  0  0  0  0  0  0  0  0  0  0  0
   -6.0850   -2.0780   -5.0070 C   0  0  0  0  0  0  0  0  0  0  0  0
   -7.3470   -1.9600   -4.6270 N   0  0  0  0  0  0  0  0  0  0  0  0
  -12.1450   -0.9640   -2.3390 O   0  0  0  0  0  0  0  0  0  0  0  0
  -18.7610   -1.8760   -2.7390 F   0  0  0  0  0  0  0  0  0  0  0  0
  -18.4550    0.3250   -2.2750 F   0  0  0  0  0  0  0  0  0  0  0  0
  -19.1950   -1.1300   -0.7370 F   0  0  0  0  0  0  0  0  0  0  0  0
  -10.1467   -3.0903   -3.8357 C   0  0  0  0  0  0  0  0  0  0  0  0
  -10.1681   -2.5855   -3.6007 C   0  0  0  0  0  0  0  0  0  0  0  0
  -10.4499   -1.5957   -4.9129 C   0  0  0  0  0  0  0  0  0  0  0  0
  -11.0813   -3.7032   -3.8773 C   0  0  0  0  0  0  0  0  0  0  0  0
  -11.1719   -2.4436   -3.0003 S   0  0  0  0  0  0  0  0  0  0  0  0
  -12.5066   -3.5012   -3.3020 O   0  0  0  0  0  0  0  0  0  0  0  0
  1  2  2  0
  2  3  1  0
  2 16  1  0
  3  4  1  0
  3  6  2  0
  4  5  1  0
  6  7  1  0
  7 15  1  0
  7  8  1  0
 11 12  1  0
 12 28  1  0
 12 27  1  0
 12 26  1  0
 15 16  1  0
 15 25  2  0
 16 17  1  0
 17 18  1  0
 18 19  1  0
 18 29  1  0
 29 30  1  0
 30 31  1  0
 29 32  1  0
 30 33  1  0
 33 34  2  0
  8  9  2  0
  9 10  1  0
 10 11  2  0
 11 13  1  0
 13 14  2  0
 14  8  1  0
 19 20  2  0
 20 21  1  0
 21 22  2  0
 22 23  1  0
 23 24  2  0
 24 19  1  0
M  END

$$$$
No_496-gen_results_new/Mpro_new_generate_500/2024-01-19-21-58-56/
     RDKit          3D

 32 34  0  0  0  0  0  0  0  0999 V2000
   -9.1300   -2.9100    0.4520 O   0  0  0  0  0  0  0  0  0  0  0  0
  -10.2490   -2.6420    0.1800 C   0  0  0  0  0  0  0  0  0  0  0  0
  -11.3800   -3.0650    1.0860 C   0  0  0  0  0  0  0  0  0  0  0  0
  -11.2000   -3.8390    2.3880 C   0  0  0  0  0  0  0  0  0  0  0  0
  -10.9900   -5.0690    2.3420 N   0  0  0  0  0  0  0  0  0  0  0  0
  -12.7310   -2.7290    0.7330 N   0  0  0  0  0  0  0  0  0  0  0  0
  -12.9960   -1.9940   -0.4510 N   0  0  0  0  0  0  0  0  0  0  0  0
  -14.3580   -1.6940   -0.7530 C   0  0  0  0  0  0  0  0  0  0  0  0
  -15.0390   -0.7180   -0.0560 C   0  0  0  0  0  0  0  0  0  0  0  0
  -16.3510   -0.4690   -0.3980 C   0  0  0  0  0  0  0  0  0  0  0  0
  -16.9430   -1.2030   -1.4080 C   0  0  0  0  0  0  0  0  0  0  0  0
  -18.3840   -0.9560   -1.8060 C   0  0  0  0  0  0  0  0  0  0  0  0
  -16.2510   -2.1690   -2.1000 C   0  0  0  0  0  0  0  0  0  0  0  0
  -14.9490   -2.4160   -1.7590 C   0  0  0  0  0  0  0  0  0  0  0  0
  -11.9050   -1.5730   -1.3540 C   0  0  0  0  0  0  0  0  0  0  0  0
  -10.5280   -1.9050   -1.0240 N   0  0  0  0  0  0  0  0  0  0  0  0
   -9.4550   -1.4720   -1.9190 C   0  0  0  0  0  0  0  0  0  0  0  0
   -9.2820   -2.3940   -3.1270 C   0  0  0  0  0  0  0  0  0  0  0  0
   -7.8170   -2.5500   -3.5360 C   0  0  0  0  0  0  0  0  0  0  0  0
   -6.9720   -3.3210   -2.7550 C   0  0  0  0  0  0  0  0  0  0  0  0
   -5.6390   -3.4770   -3.1110 C   0  0  0  0  0  0  0  0  0  0  0  0
   -5.1940   -2.8390   -4.2640 C   0  0  0  0  0  0  0  0  0  0  0  0
   -6.0850   -2.0780   -5.0070 C   0  0  0  0  0  0  0  0  0  0  0  0
   -7.3470   -1.9600   -4.6270 N   0  0  0  0  0  0  0  0  0  0  0  0
  -12.1450   -0.9640   -2.3390 O   0  0  0  0  0  0  0  0  0  0  0  0
  -18.7610   -1.8760   -2.7390 F   0  0  0  0  0  0  0  0  0  0  0  0
  -18.4550    0.3250   -2.2750 F   0  0  0  0  0  0  0  0  0  0  0  0
  -19.1950   -1.1300   -0.7370 F   0  0  0  0  0  0  0  0  0  0  0  0
  -10.1467   -3.0903   -3.8357 C   0  0  0  0  0  0  0  0  0  0  0  0
  -10.1681   -2.5855   -3.6007 C   0  0  0  0  0  0  0  0  0  0  0  0
  -10.5267   -1.6755   -4.6201 F   0  0  0  0  0  0  0  0  0  0  0  0
  -11.3727   -2.4617   -2.8446 F   0  0  0  0  0  0  0  0  0  0  0  0
  1  2  2  0
  2  3  1  0
  2 16  1  0
  3  4  1  0
  3  6  2  0
  4  5  1  0
  6  7  1  0
  7 15  1  0
  7  8  1  0
 11 12  1  0
 12 28  1  0
 12 27  1  0
 12 26  1  0
 15 16  1  0
 15 25  2  0
 16 17  1  0
 17 18  1  0
 18 19  1  0
 18 29  1  0
 29 30  2  3
 29 31  1  0
 30 32  1  0
  8  9  2  0
  9 10  1  0
 10 11  2  0
 11 13  1  0
 13 14  2  0
 14  8  1  0
 19 20  2  0
 20 21  1  0
 21 22  2  0
 22 23  1  0
 23 24  2  0
 24 19  1  0
M  END

$$$$
No_497-gen_results_new/Mpro_new_generate_500/2024-01-19-21-58-56/
     RDKit          3D

 34 37  0  0  0  0  0  0  0  0999 V2000
   -9.1300   -2.9100    0.4520 O   0  0  0  0  0  0  0  0  0  0  0  0
  -10.2490   -2.6420    0.1800 C   0  0  0  0  0  0  0  0  0  0  0  0
  -11.3800   -3.0650    1.0860 C   0  0  0  0  0  0  0  0  0  0  0  0
  -11.2000   -3.8390    2.3880 C   0  0  0  0  0  0  0  0  0  0  0  0
  -10.9900   -5.0690    2.3420 N   0  0  0  0  0  0  0  0  0  0  0  0
  -12.7310   -2.7290    0.7330 N   0  0  0  0  0  0  0  0  0  0  0  0
  -12.9960   -1.9940   -0.4510 N   0  0  0  0  0  0  0  0  0  0  0  0
  -14.3580   -1.6940   -0.7530 C   0  0  0  0  0  0  0  0  0  0  0  0
  -15.0390   -0.7180   -0.0560 C   0  0  0  0  0  0  0  0  0  0  0  0
  -16.3510   -0.4690   -0.3980 C   0  0  0  0  0  0  0  0  0  0  0  0
  -16.9430   -1.2030   -1.4080 C   0  0  0  0  0  0  0  0  0  0  0  0
  -18.3840   -0.9560   -1.8060 C   0  0  0  0  0  0  0  0  0  0  0  0
  -16.2510   -2.1690   -2.1000 C   0  0  0  0  0  0  0  0  0  0  0  0
  -14.9490   -2.4160   -1.7590 C   0  0  0  0  0  0  0  0  0  0  0  0
  -11.9050   -1.5730   -1.3540 C   0  0  0  0  0  0  0  0  0  0  0  0
  -10.5280   -1.9050   -1.0240 N   0  0  0  0  0  0  0  0  0  0  0  0
   -9.4550   -1.4720   -1.9190 C   0  0  0  0  0  0  0  0  0  0  0  0
   -9.2820   -2.3940   -3.1270 C   0  0  0  0  0  0  0  0  0  0  0  0
   -7.8170   -2.5500   -3.5360 C   0  0  0  0  0  0  0  0  0  0  0  0
   -6.9720   -3.3210   -2.7550 C   0  0  0  0  0  0  0  0  0  0  0  0
   -5.6390   -3.4770   -3.1110 C   0  0  0  0  0  0  0  0  0  0  0  0
   -5.1940   -2.8390   -4.2640 C   0  0  0  0  0  0  0  0  0  0  0  0
   -6.0850   -2.0780   -5.0070 C   0  0  0  0  0  0  0  0  0  0  0  0
   -7.3470   -1.9600   -4.6270 N   0  0  0  0  0  0  0  0  0  0  0  0
  -12.1450   -0.9640   -2.3390 O   0  0  0  0  0  0  0  0  0  0  0  0
  -18.7610   -1.8760   -2.7390 F   0  0  0  0  0  0  0  0  0  0  0  0
  -18.4550    0.3250   -2.2750 F   0  0  0  0  0  0  0  0  0  0  0  0
  -19.1950   -1.1300   -0.7370 F   0  0  0  0  0  0  0  0  0  0  0  0
  -10.0453   -2.0069   -4.3181 C   0  0  0  0  0  0  0  0  0  0  0  0
   -9.8476   -3.8948   -2.8015 C   0  0  0  0  0  0  0  0  0  0  0  0
  -10.9871   -4.2370   -3.4678 C   0  0  0  0  0  0  0  0  0  0  0  0
  -11.0932   -2.9485   -4.4299 C   0  0  0  0  0  0  0  0  0  0  0  0
   -9.9937   -0.9959   -5.0580 O   0  0  0  0  0  0  0  0  0  0  0  0
  -10.9408   -5.2927   -4.2362 C   0  0  0  0  0  0  0  0  0  0  0  0
  1  2  2  0
  2  3  1  0
  2 16  1  0
  3  4  1  0
  3  6  2  0
  4  5  1  0
  6  7  1  0
  7 15  1  0
  7  8  1  0
 11 12  1  0
 12 28  1  0
 12 27  1  0
 12 26  1  0
 15 16  1  0
 15 25  2  0
 16 17  1  0
 17 18  1  0
 18 19  1  0
 18 29  1  0
 18 30  1  0
 30 31  1  0
 29 32  1  0
 31 32  2  0
 29 33  2  0
 31 34  1  0
  8  9  2  0
  9 10  1  0
 10 11  2  0
 11 13  1  0
 13 14  2  0
 14  8  1  0
 19 20  2  0
 20 21  1  0
 21 22  2  0
 22 23  1  0
 23 24  2  0
 24 19  1  0
M  END

$$$$
No_498-gen_results_new/Mpro_new_generate_500/2024-01-19-21-58-56/
     RDKit          3D

 34 36  0  0  0  0  0  0  0  0999 V2000
   -9.1300   -2.9100    0.4520 O   0  0  0  0  0  0  0  0  0  0  0  0
  -10.2490   -2.6420    0.1800 C   0  0  0  0  0  0  0  0  0  0  0  0
  -11.3800   -3.0650    1.0860 C   0  0  0  0  0  0  0  0  0  0  0  0
  -11.2000   -3.8390    2.3880 C   0  0  0  0  0  0  0  0  0  0  0  0
  -10.9900   -5.0690    2.3420 N   0  0  0  0  0  0  0  0  0  0  0  0
  -12.7310   -2.7290    0.7330 N   0  0  0  0  0  0  0  0  0  0  0  0
  -12.9960   -1.9940   -0.4510 N   0  0  0  0  0  0  0  0  0  0  0  0
  -14.3580   -1.6940   -0.7530 C   0  0  0  0  0  0  0  0  0  0  0  0
  -15.0390   -0.7180   -0.0560 C   0  0  0  0  0  0  0  0  0  0  0  0
  -16.3510   -0.4690   -0.3980 C   0  0  0  0  0  0  0  0  0  0  0  0
  -16.9430   -1.2030   -1.4080 C   0  0  0  0  0  0  0  0  0  0  0  0
  -18.3840   -0.9560   -1.8060 C   0  0  0  0  0  0  0  0  0  0  0  0
  -16.2510   -2.1690   -2.1000 C   0  0  0  0  0  0  0  0  0  0  0  0
  -14.9490   -2.4160   -1.7590 C   0  0  0  0  0  0  0  0  0  0  0  0
  -11.9050   -1.5730   -1.3540 C   0  0  0  0  0  0  0  0  0  0  0  0
  -10.5280   -1.9050   -1.0240 N   0  0  0  0  0  0  0  0  0  0  0  0
   -9.4550   -1.4720   -1.9190 C   0  0  0  0  0  0  0  0  0  0  0  0
   -9.2820   -2.3940   -3.1270 C   0  0  0  0  0  0  0  0  0  0  0  0
   -7.8170   -2.5500   -3.5360 C   0  0  0  0  0  0  0  0  0  0  0  0
   -6.9720   -3.3210   -2.7550 C   0  0  0  0  0  0  0  0  0  0  0  0
   -5.6390   -3.4770   -3.1110 C   0  0  0  0  0  0  0  0  0  0  0  0
   -5.1940   -2.8390   -4.2640 C   0  0  0  0  0  0  0  0  0  0  0  0
   -6.0850   -2.0780   -5.0070 C   0  0  0  0  0  0  0  0  0  0  0  0
   -7.3470   -1.9600   -4.6270 N   0  0  0  0  0  0  0  0  0  0  0  0
  -12.1450   -0.9640   -2.3390 O   0  0  0  0  0  0  0  0  0  0  0  0
  -18.7610   -1.8760   -2.7390 F   0  0  0  0  0  0  0  0  0  0  0  0
  -18.4550    0.3250   -2.2750 F   0  0  0  0  0  0  0  0  0  0  0  0
  -19.1950   -1.1300   -0.7370 F   0  0  0  0  0  0  0  0  0  0  0  0
  -10.0453   -2.0069   -4.3181 C   0  0  0  0  0  0  0  0  0  0  0  0
   -9.7809   -3.8139   -2.5967 C   0  0  0  0  0  0  0  0  0  0  0  0
  -11.1072   -4.2844   -2.6345 C   0  0  0  0  0  0  0  0  0  0  0  0
  -11.7253   -3.8932   -3.5401 F   0  0  0  0  0  0  0  0  0  0  0  0
  -11.5525   -4.6512   -1.5956 O   0  0  0  0  0  0  0  0  0  0  0  0
  -11.1838   -5.7797   -0.8064 C   0  0  0  0  0  0  0  0  0  0  0  0
  1  2  2  0
  2  3  1  0
  2 16  1  0
  3  4  1  0
  3  6  2  0
  4  5  1  0
  6  7  1  0
  7 15  1  0
  7  8  1  0
 11 12  1  0
 12 28  1  0
 12 27  1  0
 12 26  1  0
 15 16  1  0
 15 25  2  0
 16 17  1  0
 17 18  1  0
 18 19  1  0
 18 29  1  0
 18 30  1  0
 30 31  2  3
 31 32  1  0
 31 33  1  0
 33 34  1  0
  8  9  2  0
  9 10  1  0
 10 11  2  0
 11 13  1  0
 13 14  2  0
 14  8  1  0
 19 20  2  0
 20 21  1  0
 21 22  2  0
 22 23  1  0
 23 24  2  0
 24 19  1  0
M  END

$$$$
No_499-gen_results_new/Mpro_new_generate_500/2024-01-19-21-58-56/
     RDKit          3D

 34 36  0  0  0  0  0  0  0  0999 V2000
   -9.1300   -2.9100    0.4520 O   0  0  0  0  0  0  0  0  0  0  0  0
  -10.2490   -2.6420    0.1800 C   0  0  0  0  0  0  0  0  0  0  0  0
  -11.3800   -3.0650    1.0860 C   0  0  0  0  0  0  0  0  0  0  0  0
  -11.2000   -3.8390    2.3880 C   0  0  0  0  0  0  0  0  0  0  0  0
  -10.9900   -5.0690    2.3420 N   0  0  0  0  0  0  0  0  0  0  0  0
  -12.7310   -2.7290    0.7330 N   0  0  0  0  0  0  0  0  0  0  0  0
  -12.9960   -1.9940   -0.4510 N   0  0  0  0  0  0  0  0  0  0  0  0
  -14.3580   -1.6940   -0.7530 C   0  0  0  0  0  0  0  0  0  0  0  0
  -15.0390   -0.7180   -0.0560 C   0  0  0  0  0  0  0  0  0  0  0  0
  -16.3510   -0.4690   -0.3980 C   0  0  0  0  0  0  0  0  0  0  0  0
  -16.9430   -1.2030   -1.4080 C   0  0  0  0  0  0  0  0  0  0  0  0
  -18.3840   -0.9560   -1.8060 C   0  0  0  0  0  0  0  0  0  0  0  0
  -16.2510   -2.1690   -2.1000 C   0  0  0  0  0  0  0  0  0  0  0  0
  -14.9490   -2.4160   -1.7590 C   0  0  0  0  0  0  0  0  0  0  0  0
  -11.9050   -1.5730   -1.3540 C   0  0  0  0  0  0  0  0  0  0  0  0
  -10.5280   -1.9050   -1.0240 N   0  0  0  0  0  0  0  0  0  0  0  0
   -9.4550   -1.4720   -1.9190 C   0  0  0  0  0  0  0  0  0  0  0  0
   -9.2820   -2.3940   -3.1270 C   0  0  0  0  0  0  0  0  0  0  0  0
   -7.8170   -2.5500   -3.5360 C   0  0  0  0  0  0  0  0  0  0  0  0
   -6.9720   -3.3210   -2.7550 C   0  0  0  0  0  0  0  0  0  0  0  0
   -5.6390   -3.4770   -3.1110 C   0  0  0  0  0  0  0  0  0  0  0  0
   -5.1940   -2.8390   -4.2640 C   0  0  0  0  0  0  0  0  0  0  0  0
   -6.0850   -2.0780   -5.0070 C   0  0  0  0  0  0  0  0  0  0  0  0
   -7.3470   -1.9600   -4.6270 N   0  0  0  0  0  0  0  0  0  0  0  0
  -12.1450   -0.9640   -2.3390 O   0  0  0  0  0  0  0  0  0  0  0  0
  -18.7610   -1.8760   -2.7390 F   0  0  0  0  0  0  0  0  0  0  0  0
  -18.4550    0.3250   -2.2750 F   0  0  0  0  0  0  0  0  0  0  0  0
  -19.1950   -1.1300   -0.7370 F   0  0  0  0  0  0  0  0  0  0  0  0
  -10.0453   -2.0069   -4.3181 C   0  0  0  0  0  0  0  0  0  0  0  0
   -9.9627   -4.1189   -2.7873 S   0  0  0  0  0  0  0  0  0  0  0  0
  -10.1021   -4.7702   -4.4453 C   0  0  0  0  0  0  0  0  0  0  0  0
  -11.2178   -4.0362   -2.2571 O   0  0  0  0  0  0  0  0  0  0  0  0
   -9.1164   -5.0162   -2.0156 O   0  0  0  0  0  0  0  0  0  0  0  0
  -10.5552   -3.8294   -5.0512 O   0  0  0  0  0  0  0  0  0  0  0  0
  1  2  2  0
  2  3  1  0
  2 16  1  0
  3  4  1  0
  3  6  2  0
  4  5  1  0
  6  7  1  0
  7 15  1  0
  7  8  1  0
 11 12  1  0
 12 28  1  0
 12 27  1  0
 12 26  1  0
 15 16  1  0
 15 25  2  0
 16 17  1  0
 17 18  1  0
 18 19  1  0
 18 29  1  0
 18 30  1  0
 30 31  1  0
 30 32  2  0
 30 33  2  0
 31 34  2  0
  8  9  2  0
  9 10  1  0
 10 11  2  0
 11 13  1  0
 13 14  2  0
 14  8  1  0
 19 20  2  0
 20 21  1  0
 21 22  2  0
 22 23  1  0
 23 24  2  0
 24 19  1  0
M  END

$$$$
